<?xml version="1.0" encoding="UTF-8"?>

<!-- generated on 10/27/20 16:57:35 by Eclipse SUMO netgenerate Version 1.1.0
<configuration xmlns:xsi="http://www.w3.org/2001/XMLSchema-instance" xsi:noNamespaceSchemaLocation="http://sumo.dlr.de/xsd/netgenerateConfiguration.xsd">

    <grid_network>
        <grid value="true"/>
        <grid.length value="500"/>
        <grid.x-number value="6"/>
        <grid.y-number value="6"/>
        <grid.attach-length value="500"/>
    </grid_network>

    <output>
        <plain-output-prefix value="true"/>
    </output>

    <building_defaults>
        <default.lanenumber value="2"/>
    </building_defaults>

</configuration>
-->

<edges version="1.1" xmlns:xsi="http://www.w3.org/2001/XMLSchema-instance" xsi:noNamespaceSchemaLocation="http://sumo.dlr.de/xsd/edges_file.xsd">
    <edge id="A0A1" from="A0" to="A1" priority="-1" numLanes="1" speed="13.89"/>
    <edge id="A0B0" from="A0" to="B0" priority="-1" numLanes="1" speed="13.89"/>
    <edge id="A0bottom0" from="A0" to="bottom0" priority="-1" numLanes="1" speed="13.89"/>
    <edge id="A0left0" from="A0" to="left0" priority="-1" numLanes="1" speed="13.89"/>
    <edge id="A1A0" from="A1" to="A0" priority="-1" numLanes="1" speed="13.89"/>
    <edge id="A1B1" from="A1" to="B1" priority="-1" numLanes="1" speed="13.89"/>
    <edge id="A1left1" from="A1" to="left1" priority="-1" numLanes="1" speed="13.89"/>
    <edge id="A1top0" from="A1" to="top0" priority="-1" numLanes="1" speed="13.89"/>
    <edge id="B0A0" from="B0" to="A0" priority="-1" numLanes="1" speed="13.89"/>
    <edge id="B0B1" from="B0" to="B1" priority="-1" numLanes="1" speed="13.89"/>
    <edge id="B0bottom1" from="B0" to="bottom1" priority="-1" numLanes="1" speed="13.89"/>
    <edge id="B0right0" from="B0" to="right0" priority="-1" numLanes="1" speed="13.89"/>
    <edge id="B1A1" from="B1" to="A1" priority="-1" numLanes="1" speed="13.89"/>
    <edge id="B1B0" from="B1" to="B0" priority="-1" numLanes="1" speed="13.89"/>
    <edge id="B1right1" from="B1" to="right1" priority="-1" numLanes="1" speed="13.89"/>
    <edge id="B1top1" from="B1" to="top1" priority="-1" numLanes="1" speed="13.89"/>
    <edge id="bottom0A0" from="bottom0" to="A0" priority="-1" numLanes="1" speed="13.89"/>
    <edge id="bottom1B0" from="bottom1" to="B0" priority="-1" numLanes="1" speed="13.89"/>
    <edge id="left0A0" from="left0" to="A0" priority="-1" numLanes="1" speed="13.89"/>
    <edge id="left1A1" from="left1" to="A1" priority="-1" numLanes="1" speed="13.89"/>
    <edge id="right0B0" from="right0" to="B0" priority="-1" numLanes="1" speed="13.89"/>
    <edge id="right1B1" from="right1" to="B1" priority="-1" numLanes="1" speed="13.89"/>
    <edge id="top0A1" from="top0" to="A1" priority="-1" numLanes="1" speed="13.89"/>
    <edge id="top1B1" from="top1" to="B1" priority="-1" numLanes="1" speed="13.89"/>
</edges>
