<?xml version="1.0" encoding="UTF-8"?>

<!-- generated on Tue Mar 30 11:57:16 2021 by Eclipse SUMO netconvert Version 1.6.0
<configuration xmlns:xsi="http://www.w3.org/2001/XMLSchema-instance" xsi:noNamespaceSchemaLocation="http://sumo.dlr.de/xsd/netconvertConfiguration.xsd">

    <input>
        <node-files value="true.nod.xml"/>
        <edge-files value="true.edg.xml"/>
    </input>

    <output>
        <output-file value="true.net.xml"/>
    </output>

    <report>
        <aggregate-warnings value="5"/>
    </report>

</configuration>
-->

<net version="1.6" junctionCornerDetail="5" limitTurnSpeed="5.50" xmlns:xsi="http://www.w3.org/2001/XMLSchema-instance" xsi:noNamespaceSchemaLocation="http://sumo.dlr.de/xsd/net_file.xsd">

    <location netOffset="0.00,0.00" convBoundary="0.00,0.00,1500.00,1500.00" origBoundary="0.00,0.00,3500.00,3500.00" projParameter="!"/>

    <edge id=":A0_0" function="internal">
        <lane id=":A0_0_0" index="0" speed="6.51" length="9.03" shape="495.20,510.40 494.85,507.95 493.80,506.20 492.05,505.15 489.60,504.80"/>
    </edge>
    <edge id=":A0_1" function="internal">
        <lane id=":A0_1_0" index="0" speed="13.89" length="20.80" shape="495.20,510.40 495.20,489.60"/>
        <lane id=":A0_1_1" index="1" speed="13.89" length="20.80" shape="498.40,510.40 498.40,489.60"/>
    </edge>
    <edge id=":A0_3" function="internal">
        <lane id=":A0_3_0" index="0" speed="9.26" length="6.96" shape="498.40,510.40 499.15,505.15 500.00,503.73"/>
    </edge>
    <edge id=":A0_4" function="internal">
        <lane id=":A0_4_0" index="0" speed="3.65" length="2.34" shape="498.40,510.40 499.20,509.20 500.00,508.80"/>
    </edge>
    <edge id=":A0_20" function="internal">
        <lane id=":A0_20_0" index="0" speed="9.26" length="12.40" shape="500.00,503.73 501.40,501.40 505.15,499.15 510.40,498.40"/>
    </edge>
    <edge id=":A0_21" function="internal">
        <lane id=":A0_21_0" index="0" speed="3.65" length="2.34" shape="500.00,508.80 500.80,509.20 501.60,510.40"/>
    </edge>
    <edge id=":A0_5" function="internal">
        <lane id=":A0_5_0" index="0" speed="6.51" length="9.03" shape="510.40,504.80 507.95,505.15 506.20,506.20 505.15,507.95 504.80,510.40"/>
    </edge>
    <edge id=":A0_6" function="internal">
        <lane id=":A0_6_0" index="0" speed="13.89" length="20.80" shape="510.40,504.80 489.60,504.80"/>
        <lane id=":A0_6_1" index="1" speed="13.89" length="20.80" shape="510.40,501.60 489.60,501.60"/>
    </edge>
    <edge id=":A0_8" function="internal">
        <lane id=":A0_8_0" index="0" speed="9.26" length="6.96" shape="510.40,501.60 505.15,500.85 503.73,500.00"/>
    </edge>
    <edge id=":A0_9" function="internal">
        <lane id=":A0_9_0" index="0" speed="3.65" length="2.34" shape="510.40,501.60 509.20,500.80 508.80,500.00"/>
    </edge>
    <edge id=":A0_22" function="internal">
        <lane id=":A0_22_0" index="0" speed="9.26" length="12.40" shape="503.73,500.00 501.40,498.60 499.15,494.85 498.40,489.60"/>
    </edge>
    <edge id=":A0_23" function="internal">
        <lane id=":A0_23_0" index="0" speed="3.65" length="2.34" shape="508.80,500.00 509.20,499.20 510.40,498.40"/>
    </edge>
    <edge id=":A0_10" function="internal">
        <lane id=":A0_10_0" index="0" speed="6.51" length="9.03" shape="504.80,489.60 505.15,492.05 506.20,493.80 507.95,494.85 510.40,495.20"/>
    </edge>
    <edge id=":A0_11" function="internal">
        <lane id=":A0_11_0" index="0" speed="13.89" length="20.80" shape="504.80,489.60 504.80,510.40"/>
        <lane id=":A0_11_1" index="1" speed="13.89" length="20.80" shape="501.60,489.60 501.60,510.40"/>
    </edge>
    <edge id=":A0_13" function="internal">
        <lane id=":A0_13_0" index="0" speed="9.26" length="6.96" shape="501.60,489.60 500.85,494.85 500.00,496.27"/>
    </edge>
    <edge id=":A0_14" function="internal">
        <lane id=":A0_14_0" index="0" speed="3.65" length="2.34" shape="501.60,489.60 500.80,490.80 500.00,491.20"/>
    </edge>
    <edge id=":A0_24" function="internal">
        <lane id=":A0_24_0" index="0" speed="9.26" length="12.40" shape="500.00,496.27 498.60,498.60 494.85,500.85 489.60,501.60"/>
    </edge>
    <edge id=":A0_25" function="internal">
        <lane id=":A0_25_0" index="0" speed="3.65" length="2.34" shape="500.00,491.20 499.20,490.80 498.40,489.60"/>
    </edge>
    <edge id=":A0_15" function="internal">
        <lane id=":A0_15_0" index="0" speed="6.51" length="9.03" shape="489.60,495.20 492.05,494.85 493.80,493.80 494.85,492.05 495.20,489.60"/>
    </edge>
    <edge id=":A0_16" function="internal">
        <lane id=":A0_16_0" index="0" speed="13.89" length="20.80" shape="489.60,495.20 510.40,495.20"/>
        <lane id=":A0_16_1" index="1" speed="13.89" length="20.80" shape="489.60,498.40 510.40,498.40"/>
    </edge>
    <edge id=":A0_18" function="internal">
        <lane id=":A0_18_0" index="0" speed="9.26" length="6.96" shape="489.60,498.40 494.85,499.15 496.27,500.00"/>
    </edge>
    <edge id=":A0_19" function="internal">
        <lane id=":A0_19_0" index="0" speed="3.65" length="2.34" shape="489.60,498.40 490.80,499.20 491.20,500.00"/>
    </edge>
    <edge id=":A0_26" function="internal">
        <lane id=":A0_26_0" index="0" speed="9.26" length="12.40" shape="496.27,500.00 498.60,501.40 500.85,505.15 501.60,510.40"/>
    </edge>
    <edge id=":A0_27" function="internal">
        <lane id=":A0_27_0" index="0" speed="3.65" length="2.34" shape="491.20,500.00 490.80,500.80 489.60,501.60"/>
    </edge>
    <edge id=":A1_0" function="internal">
        <lane id=":A1_0_0" index="0" speed="6.51" length="9.03" shape="495.20,1010.40 494.85,1007.95 493.80,1006.20 492.05,1005.15 489.60,1004.80"/>
    </edge>
    <edge id=":A1_1" function="internal">
        <lane id=":A1_1_0" index="0" speed="13.89" length="20.80" shape="495.20,1010.40 495.20,989.60"/>
        <lane id=":A1_1_1" index="1" speed="13.89" length="20.80" shape="498.40,1010.40 498.40,989.60"/>
    </edge>
    <edge id=":A1_3" function="internal">
        <lane id=":A1_3_0" index="0" speed="9.26" length="6.96" shape="498.40,1010.40 499.15,1005.15 500.00,1003.73"/>
    </edge>
    <edge id=":A1_4" function="internal">
        <lane id=":A1_4_0" index="0" speed="3.65" length="2.34" shape="498.40,1010.40 499.20,1009.20 500.00,1008.80"/>
    </edge>
    <edge id=":A1_20" function="internal">
        <lane id=":A1_20_0" index="0" speed="9.26" length="12.40" shape="500.00,1003.73 501.40,1001.40 505.15,999.15 510.40,998.40"/>
    </edge>
    <edge id=":A1_21" function="internal">
        <lane id=":A1_21_0" index="0" speed="3.65" length="2.34" shape="500.00,1008.80 500.80,1009.20 501.60,1010.40"/>
    </edge>
    <edge id=":A1_5" function="internal">
        <lane id=":A1_5_0" index="0" speed="6.51" length="9.03" shape="510.40,1004.80 507.95,1005.15 506.20,1006.20 505.15,1007.95 504.80,1010.40"/>
    </edge>
    <edge id=":A1_6" function="internal">
        <lane id=":A1_6_0" index="0" speed="13.89" length="20.80" shape="510.40,1004.80 489.60,1004.80"/>
        <lane id=":A1_6_1" index="1" speed="13.89" length="20.80" shape="510.40,1001.60 489.60,1001.60"/>
    </edge>
    <edge id=":A1_8" function="internal">
        <lane id=":A1_8_0" index="0" speed="9.26" length="6.96" shape="510.40,1001.60 505.15,1000.85 503.73,1000.00"/>
    </edge>
    <edge id=":A1_9" function="internal">
        <lane id=":A1_9_0" index="0" speed="3.65" length="2.34" shape="510.40,1001.60 509.20,1000.80 508.80,1000.00"/>
    </edge>
    <edge id=":A1_22" function="internal">
        <lane id=":A1_22_0" index="0" speed="9.26" length="12.40" shape="503.73,1000.00 501.40,998.60 499.15,994.85 498.40,989.60"/>
    </edge>
    <edge id=":A1_23" function="internal">
        <lane id=":A1_23_0" index="0" speed="3.65" length="2.34" shape="508.80,1000.00 509.20,999.20 510.40,998.40"/>
    </edge>
    <edge id=":A1_10" function="internal">
        <lane id=":A1_10_0" index="0" speed="6.51" length="9.03" shape="504.80,989.60 505.15,992.05 506.20,993.80 507.95,994.85 510.40,995.20"/>
    </edge>
    <edge id=":A1_11" function="internal">
        <lane id=":A1_11_0" index="0" speed="13.89" length="20.80" shape="504.80,989.60 504.80,1010.40"/>
        <lane id=":A1_11_1" index="1" speed="13.89" length="20.80" shape="501.60,989.60 501.60,1010.40"/>
    </edge>
    <edge id=":A1_13" function="internal">
        <lane id=":A1_13_0" index="0" speed="9.26" length="6.96" shape="501.60,989.60 500.85,994.85 500.00,996.27"/>
    </edge>
    <edge id=":A1_14" function="internal">
        <lane id=":A1_14_0" index="0" speed="3.65" length="2.34" shape="501.60,989.60 500.80,990.80 500.00,991.20"/>
    </edge>
    <edge id=":A1_24" function="internal">
        <lane id=":A1_24_0" index="0" speed="9.26" length="12.40" shape="500.00,996.27 498.60,998.60 494.85,1000.85 489.60,1001.60"/>
    </edge>
    <edge id=":A1_25" function="internal">
        <lane id=":A1_25_0" index="0" speed="3.65" length="2.34" shape="500.00,991.20 499.20,990.80 498.40,989.60"/>
    </edge>
    <edge id=":A1_15" function="internal">
        <lane id=":A1_15_0" index="0" speed="6.51" length="9.03" shape="489.60,995.20 492.05,994.85 493.80,993.80 494.85,992.05 495.20,989.60"/>
    </edge>
    <edge id=":A1_16" function="internal">
        <lane id=":A1_16_0" index="0" speed="13.89" length="20.80" shape="489.60,995.20 510.40,995.20"/>
        <lane id=":A1_16_1" index="1" speed="13.89" length="20.80" shape="489.60,998.40 510.40,998.40"/>
    </edge>
    <edge id=":A1_18" function="internal">
        <lane id=":A1_18_0" index="0" speed="9.26" length="6.96" shape="489.60,998.40 494.85,999.15 496.27,1000.00"/>
    </edge>
    <edge id=":A1_19" function="internal">
        <lane id=":A1_19_0" index="0" speed="3.65" length="2.34" shape="489.60,998.40 490.80,999.20 491.20,1000.00"/>
    </edge>
    <edge id=":A1_26" function="internal">
        <lane id=":A1_26_0" index="0" speed="9.26" length="12.40" shape="496.27,1000.00 498.60,1001.40 500.85,1005.15 501.60,1010.40"/>
    </edge>
    <edge id=":A1_27" function="internal">
        <lane id=":A1_27_0" index="0" speed="3.65" length="2.34" shape="491.20,1000.00 490.80,1000.80 489.60,1001.60"/>
    </edge>
    <edge id=":B0_0" function="internal">
        <lane id=":B0_0_0" index="0" speed="6.51" length="9.03" shape="995.20,510.40 994.85,507.95 993.80,506.20 992.05,505.15 989.60,504.80"/>
    </edge>
    <edge id=":B0_1" function="internal">
        <lane id=":B0_1_0" index="0" speed="13.89" length="20.80" shape="995.20,510.40 995.20,489.60"/>
        <lane id=":B0_1_1" index="1" speed="13.89" length="20.80" shape="998.40,510.40 998.40,489.60"/>
    </edge>
    <edge id=":B0_3" function="internal">
        <lane id=":B0_3_0" index="0" speed="9.26" length="6.96" shape="998.40,510.40 999.15,505.15 1000.00,503.73"/>
    </edge>
    <edge id=":B0_4" function="internal">
        <lane id=":B0_4_0" index="0" speed="3.65" length="2.34" shape="998.40,510.40 999.20,509.20 1000.00,508.80"/>
    </edge>
    <edge id=":B0_20" function="internal">
        <lane id=":B0_20_0" index="0" speed="9.26" length="12.40" shape="1000.00,503.73 1001.40,501.40 1005.15,499.15 1010.40,498.40"/>
    </edge>
    <edge id=":B0_21" function="internal">
        <lane id=":B0_21_0" index="0" speed="3.65" length="2.34" shape="1000.00,508.80 1000.80,509.20 1001.60,510.40"/>
    </edge>
    <edge id=":B0_5" function="internal">
        <lane id=":B0_5_0" index="0" speed="6.51" length="9.03" shape="1010.40,504.80 1007.95,505.15 1006.20,506.20 1005.15,507.95 1004.80,510.40"/>
    </edge>
    <edge id=":B0_6" function="internal">
        <lane id=":B0_6_0" index="0" speed="13.89" length="20.80" shape="1010.40,504.80 989.60,504.80"/>
        <lane id=":B0_6_1" index="1" speed="13.89" length="20.80" shape="1010.40,501.60 989.60,501.60"/>
    </edge>
    <edge id=":B0_8" function="internal">
        <lane id=":B0_8_0" index="0" speed="9.26" length="6.96" shape="1010.40,501.60 1005.15,500.85 1003.73,500.00"/>
    </edge>
    <edge id=":B0_9" function="internal">
        <lane id=":B0_9_0" index="0" speed="3.65" length="2.34" shape="1010.40,501.60 1009.20,500.80 1008.80,500.00"/>
    </edge>
    <edge id=":B0_22" function="internal">
        <lane id=":B0_22_0" index="0" speed="9.26" length="12.40" shape="1003.73,500.00 1001.40,498.60 999.15,494.85 998.40,489.60"/>
    </edge>
    <edge id=":B0_23" function="internal">
        <lane id=":B0_23_0" index="0" speed="3.65" length="2.34" shape="1008.80,500.00 1009.20,499.20 1010.40,498.40"/>
    </edge>
    <edge id=":B0_10" function="internal">
        <lane id=":B0_10_0" index="0" speed="6.51" length="9.03" shape="1004.80,489.60 1005.15,492.05 1006.20,493.80 1007.95,494.85 1010.40,495.20"/>
    </edge>
    <edge id=":B0_11" function="internal">
        <lane id=":B0_11_0" index="0" speed="13.89" length="20.80" shape="1004.80,489.60 1004.80,510.40"/>
        <lane id=":B0_11_1" index="1" speed="13.89" length="20.80" shape="1001.60,489.60 1001.60,510.40"/>
    </edge>
    <edge id=":B0_13" function="internal">
        <lane id=":B0_13_0" index="0" speed="9.26" length="6.96" shape="1001.60,489.60 1000.85,494.85 1000.00,496.27"/>
    </edge>
    <edge id=":B0_14" function="internal">
        <lane id=":B0_14_0" index="0" speed="3.65" length="2.34" shape="1001.60,489.60 1000.80,490.80 1000.00,491.20"/>
    </edge>
    <edge id=":B0_24" function="internal">
        <lane id=":B0_24_0" index="0" speed="9.26" length="12.40" shape="1000.00,496.27 998.60,498.60 994.85,500.85 989.60,501.60"/>
    </edge>
    <edge id=":B0_25" function="internal">
        <lane id=":B0_25_0" index="0" speed="3.65" length="2.34" shape="1000.00,491.20 999.20,490.80 998.40,489.60"/>
    </edge>
    <edge id=":B0_15" function="internal">
        <lane id=":B0_15_0" index="0" speed="6.51" length="9.03" shape="989.60,495.20 992.05,494.85 993.80,493.80 994.85,492.05 995.20,489.60"/>
    </edge>
    <edge id=":B0_16" function="internal">
        <lane id=":B0_16_0" index="0" speed="13.89" length="20.80" shape="989.60,495.20 1010.40,495.20"/>
        <lane id=":B0_16_1" index="1" speed="13.89" length="20.80" shape="989.60,498.40 1010.40,498.40"/>
    </edge>
    <edge id=":B0_18" function="internal">
        <lane id=":B0_18_0" index="0" speed="9.26" length="6.96" shape="989.60,498.40 994.85,499.15 996.27,500.00"/>
    </edge>
    <edge id=":B0_19" function="internal">
        <lane id=":B0_19_0" index="0" speed="3.65" length="2.34" shape="989.60,498.40 990.80,499.20 991.20,500.00"/>
    </edge>
    <edge id=":B0_26" function="internal">
        <lane id=":B0_26_0" index="0" speed="9.26" length="12.40" shape="996.27,500.00 998.60,501.40 1000.85,505.15 1001.60,510.40"/>
    </edge>
    <edge id=":B0_27" function="internal">
        <lane id=":B0_27_0" index="0" speed="3.65" length="2.34" shape="991.20,500.00 990.80,500.80 989.60,501.60"/>
    </edge>
    <edge id=":B1_0" function="internal">
        <lane id=":B1_0_0" index="0" speed="6.51" length="9.03" shape="995.20,1010.40 994.85,1007.95 993.80,1006.20 992.05,1005.15 989.60,1004.80"/>
    </edge>
    <edge id=":B1_1" function="internal">
        <lane id=":B1_1_0" index="0" speed="13.89" length="20.80" shape="995.20,1010.40 995.20,989.60"/>
        <lane id=":B1_1_1" index="1" speed="13.89" length="20.80" shape="998.40,1010.40 998.40,989.60"/>
    </edge>
    <edge id=":B1_3" function="internal">
        <lane id=":B1_3_0" index="0" speed="9.26" length="6.96" shape="998.40,1010.40 999.15,1005.15 1000.00,1003.73"/>
    </edge>
    <edge id=":B1_4" function="internal">
        <lane id=":B1_4_0" index="0" speed="3.65" length="2.34" shape="998.40,1010.40 999.20,1009.20 1000.00,1008.80"/>
    </edge>
    <edge id=":B1_20" function="internal">
        <lane id=":B1_20_0" index="0" speed="9.26" length="12.40" shape="1000.00,1003.73 1001.40,1001.40 1005.15,999.15 1010.40,998.40"/>
    </edge>
    <edge id=":B1_21" function="internal">
        <lane id=":B1_21_0" index="0" speed="3.65" length="2.34" shape="1000.00,1008.80 1000.80,1009.20 1001.60,1010.40"/>
    </edge>
    <edge id=":B1_5" function="internal">
        <lane id=":B1_5_0" index="0" speed="6.51" length="9.03" shape="1010.40,1004.80 1007.95,1005.15 1006.20,1006.20 1005.15,1007.95 1004.80,1010.40"/>
    </edge>
    <edge id=":B1_6" function="internal">
        <lane id=":B1_6_0" index="0" speed="13.89" length="20.80" shape="1010.40,1004.80 989.60,1004.80"/>
        <lane id=":B1_6_1" index="1" speed="13.89" length="20.80" shape="1010.40,1001.60 989.60,1001.60"/>
    </edge>
    <edge id=":B1_8" function="internal">
        <lane id=":B1_8_0" index="0" speed="9.26" length="6.96" shape="1010.40,1001.60 1005.15,1000.85 1003.73,1000.00"/>
    </edge>
    <edge id=":B1_9" function="internal">
        <lane id=":B1_9_0" index="0" speed="3.65" length="2.34" shape="1010.40,1001.60 1009.20,1000.80 1008.80,1000.00"/>
    </edge>
    <edge id=":B1_22" function="internal">
        <lane id=":B1_22_0" index="0" speed="9.26" length="12.40" shape="1003.73,1000.00 1001.40,998.60 999.15,994.85 998.40,989.60"/>
    </edge>
    <edge id=":B1_23" function="internal">
        <lane id=":B1_23_0" index="0" speed="3.65" length="2.34" shape="1008.80,1000.00 1009.20,999.20 1010.40,998.40"/>
    </edge>
    <edge id=":B1_10" function="internal">
        <lane id=":B1_10_0" index="0" speed="6.51" length="9.03" shape="1004.80,989.60 1005.15,992.05 1006.20,993.80 1007.95,994.85 1010.40,995.20"/>
    </edge>
    <edge id=":B1_11" function="internal">
        <lane id=":B1_11_0" index="0" speed="13.89" length="20.80" shape="1004.80,989.60 1004.80,1010.40"/>
        <lane id=":B1_11_1" index="1" speed="13.89" length="20.80" shape="1001.60,989.60 1001.60,1010.40"/>
    </edge>
    <edge id=":B1_13" function="internal">
        <lane id=":B1_13_0" index="0" speed="9.26" length="6.96" shape="1001.60,989.60 1000.85,994.85 1000.00,996.27"/>
    </edge>
    <edge id=":B1_14" function="internal">
        <lane id=":B1_14_0" index="0" speed="3.65" length="2.34" shape="1001.60,989.60 1000.80,990.80 1000.00,991.20"/>
    </edge>
    <edge id=":B1_24" function="internal">
        <lane id=":B1_24_0" index="0" speed="9.26" length="12.40" shape="1000.00,996.27 998.60,998.60 994.85,1000.85 989.60,1001.60"/>
    </edge>
    <edge id=":B1_25" function="internal">
        <lane id=":B1_25_0" index="0" speed="3.65" length="2.34" shape="1000.00,991.20 999.20,990.80 998.40,989.60"/>
    </edge>
    <edge id=":B1_15" function="internal">
        <lane id=":B1_15_0" index="0" speed="6.51" length="9.03" shape="989.60,995.20 992.05,994.85 993.80,993.80 994.85,992.05 995.20,989.60"/>
    </edge>
    <edge id=":B1_16" function="internal">
        <lane id=":B1_16_0" index="0" speed="13.89" length="20.80" shape="989.60,995.20 1010.40,995.20"/>
        <lane id=":B1_16_1" index="1" speed="13.89" length="20.80" shape="989.60,998.40 1010.40,998.40"/>
    </edge>
    <edge id=":B1_18" function="internal">
        <lane id=":B1_18_0" index="0" speed="9.26" length="6.96" shape="989.60,998.40 994.85,999.15 996.27,1000.00"/>
    </edge>
    <edge id=":B1_19" function="internal">
        <lane id=":B1_19_0" index="0" speed="3.65" length="2.34" shape="989.60,998.40 990.80,999.20 991.20,1000.00"/>
    </edge>
    <edge id=":B1_26" function="internal">
        <lane id=":B1_26_0" index="0" speed="9.26" length="12.40" shape="996.27,1000.00 998.60,1001.40 1000.85,1005.15 1001.60,1010.40"/>
    </edge>
    <edge id=":B1_27" function="internal">
        <lane id=":B1_27_0" index="0" speed="3.65" length="2.34" shape="991.20,1000.00 990.80,1000.80 989.60,1001.60"/>
    </edge>
    <edge id=":bottom0_0" function="internal">
        <lane id=":bottom0_0_0" index="0" speed="3.65" length="4.67" shape="498.40,0.00 499.20,-1.20 500.00,-1.60 500.80,-1.20 501.60,0.00"/>
    </edge>
    <edge id=":bottom1_0" function="internal">
        <lane id=":bottom1_0_0" index="0" speed="3.65" length="4.67" shape="998.40,0.00 999.20,-1.20 1000.00,-1.60 1000.80,-1.20 1001.60,0.00"/>
    </edge>
    <edge id=":left0_0" function="internal">
        <lane id=":left0_0_0" index="0" speed="3.65" length="4.67" shape="0.00,501.60 -1.20,500.80 -1.60,500.00 -1.20,499.20 0.00,498.40"/>
    </edge>
    <edge id=":left1_0" function="internal">
        <lane id=":left1_0_0" index="0" speed="3.65" length="4.67" shape="0.00,1001.60 -1.20,1000.80 -1.60,1000.00 -1.20,999.20 0.00,998.40"/>
    </edge>
    <edge id=":right0_0" function="internal">
        <lane id=":right0_0_0" index="0" speed="3.65" length="4.67" shape="1500.00,498.40 1501.20,499.20 1501.60,500.00 1501.20,500.80 1500.00,501.60"/>
    </edge>
    <edge id=":right1_0" function="internal">
        <lane id=":right1_0_0" index="0" speed="3.65" length="4.67" shape="1500.00,998.40 1501.20,999.20 1501.60,1000.00 1501.20,1000.80 1500.00,1001.60"/>
    </edge>
    <edge id=":top0_0" function="internal">
        <lane id=":top0_0_0" index="0" speed="3.65" length="4.67" shape="501.60,1500.00 500.80,1501.20 500.00,1501.60 499.20,1501.20 498.40,1500.00"/>
    </edge>
    <edge id=":top1_0" function="internal">
        <lane id=":top1_0_0" index="0" speed="3.65" length="4.67" shape="1001.60,1500.00 1000.80,1501.20 1000.00,1501.60 999.20,1501.20 998.40,1500.00"/>
    </edge>

    <edge id="A0A1" from="A0" to="A1" priority="-1">
        <lane id="A0A1_0" index="0" speed="13.89" length="479.20" shape="504.80,510.40 504.80,989.60"/>
        <lane id="A0A1_1" index="1" speed="13.89" length="479.20" shape="501.60,510.40 501.60,989.60"/>
    </edge>
    <edge id="A0B0" from="A0" to="B0" priority="-1">
        <lane id="A0B0_0" index="0" speed="13.89" length="479.20" shape="510.40,495.20 989.60,495.20"/>
        <lane id="A0B0_1" index="1" speed="13.89" length="479.20" shape="510.40,498.40 989.60,498.40"/>
    </edge>
    <edge id="A0bottom0" from="A0" to="bottom0" priority="-1">
        <lane id="A0bottom0_0" index="0" speed="13.89" length="489.60" shape="495.20,489.60 495.20,0.00"/>
        <lane id="A0bottom0_1" index="1" speed="13.89" length="489.60" shape="498.40,489.60 498.40,0.00"/>
    </edge>
    <edge id="A0left0" from="A0" to="left0" priority="-1">
        <lane id="A0left0_0" index="0" speed="13.89" length="489.60" shape="489.60,504.80 0.00,504.80"/>
        <lane id="A0left0_1" index="1" speed="13.89" length="489.60" shape="489.60,501.60 0.00,501.60"/>
    </edge>
    <edge id="A1A0" from="A1" to="A0" priority="-1">
        <lane id="A1A0_0" index="0" speed="13.89" length="479.20" shape="495.20,989.60 495.20,510.40"/>
        <lane id="A1A0_1" index="1" speed="13.89" length="479.20" shape="498.40,989.60 498.40,510.40"/>
    </edge>
    <edge id="A1B1" from="A1" to="B1" priority="-1">
        <lane id="A1B1_0" index="0" speed="13.89" length="479.20" shape="510.40,995.20 989.60,995.20"/>
        <lane id="A1B1_1" index="1" speed="13.89" length="479.20" shape="510.40,998.40 989.60,998.40"/>
    </edge>
    <edge id="A1left1" from="A1" to="left1" priority="-1">
        <lane id="A1left1_0" index="0" speed="13.89" length="489.60" shape="489.60,1004.80 0.00,1004.80"/>
        <lane id="A1left1_1" index="1" speed="13.89" length="489.60" shape="489.60,1001.60 0.00,1001.60"/>
    </edge>
    <edge id="A1top0" from="A1" to="top0" priority="-1">
        <lane id="A1top0_0" index="0" speed="13.89" length="489.60" shape="504.80,1010.40 504.80,1500.00"/>
        <lane id="A1top0_1" index="1" speed="13.89" length="489.60" shape="501.60,1010.40 501.60,1500.00"/>
    </edge>
    <edge id="B0A0" from="B0" to="A0" priority="-1">
        <lane id="B0A0_0" index="0" speed="13.89" length="479.20" shape="989.60,504.80 510.40,504.80"/>
        <lane id="B0A0_1" index="1" speed="13.89" length="479.20" shape="989.60,501.60 510.40,501.60"/>
    </edge>
    <edge id="B0B1" from="B0" to="B1" priority="-1">
        <lane id="B0B1_0" index="0" speed="13.89" length="479.20" shape="1004.80,510.40 1004.80,989.60"/>
        <lane id="B0B1_1" index="1" speed="13.89" length="479.20" shape="1001.60,510.40 1001.60,989.60"/>
    </edge>
    <edge id="B0bottom1" from="B0" to="bottom1" priority="-1">
        <lane id="B0bottom1_0" index="0" speed="13.89" length="489.60" shape="995.20,489.60 995.20,0.00"/>
        <lane id="B0bottom1_1" index="1" speed="13.89" length="489.60" shape="998.40,489.60 998.40,0.00"/>
    </edge>
    <edge id="B0right0" from="B0" to="right0" priority="-1">
        <lane id="B0right0_0" index="0" speed="13.89" length="489.60" shape="1010.40,495.20 1500.00,495.20"/>
        <lane id="B0right0_1" index="1" speed="13.89" length="489.60" shape="1010.40,498.40 1500.00,498.40"/>
    </edge>
    <edge id="B1A1" from="B1" to="A1" priority="-1">
        <lane id="B1A1_0" index="0" speed="13.89" length="479.20" shape="989.60,1004.80 510.40,1004.80"/>
        <lane id="B1A1_1" index="1" speed="13.89" length="479.20" shape="989.60,1001.60 510.40,1001.60"/>
    </edge>
    <edge id="B1B0" from="B1" to="B0" priority="-1">
        <lane id="B1B0_0" index="0" speed="13.89" length="479.20" shape="995.20,989.60 995.20,510.40"/>
        <lane id="B1B0_1" index="1" speed="13.89" length="479.20" shape="998.40,989.60 998.40,510.40"/>
    </edge>
    <edge id="B1right1" from="B1" to="right1" priority="-1">
        <lane id="B1right1_0" index="0" speed="13.89" length="489.60" shape="1010.40,995.20 1500.00,995.20"/>
        <lane id="B1right1_1" index="1" speed="13.89" length="489.60" shape="1010.40,998.40 1500.00,998.40"/>
    </edge>
    <edge id="B1top1" from="B1" to="top1" priority="-1">
        <lane id="B1top1_0" index="0" speed="13.89" length="489.60" shape="1004.80,1010.40 1004.80,1500.00"/>
        <lane id="B1top1_1" index="1" speed="13.89" length="489.60" shape="1001.60,1010.40 1001.60,1500.00"/>
    </edge>
    <edge id="bottom0A0" from="bottom0" to="A0" priority="-1">
        <lane id="bottom0A0_0" index="0" speed="13.89" length="489.60" shape="504.80,0.00 504.80,489.60"/>
        <lane id="bottom0A0_1" index="1" speed="13.89" length="489.60" shape="501.60,0.00 501.60,489.60"/>
    </edge>
    <edge id="bottom1B0" from="bottom1" to="B0" priority="-1">
        <lane id="bottom1B0_0" index="0" speed="13.89" length="489.60" shape="1004.80,0.00 1004.80,489.60"/>
        <lane id="bottom1B0_1" index="1" speed="13.89" length="489.60" shape="1001.60,0.00 1001.60,489.60"/>
    </edge>
    <edge id="left0A0" from="left0" to="A0" priority="-1">
        <lane id="left0A0_0" index="0" speed="13.89" length="489.60" shape="0.00,495.20 489.60,495.20"/>
        <lane id="left0A0_1" index="1" speed="13.89" length="489.60" shape="0.00,498.40 489.60,498.40"/>
    </edge>
    <edge id="left1A1" from="left1" to="A1" priority="-1">
        <lane id="left1A1_0" index="0" speed="13.89" length="489.60" shape="0.00,995.20 489.60,995.20"/>
        <lane id="left1A1_1" index="1" speed="13.89" length="489.60" shape="0.00,998.40 489.60,998.40"/>
    </edge>
    <edge id="right0B0" from="right0" to="B0" priority="-1">
        <lane id="right0B0_0" index="0" speed="13.89" length="489.60" shape="1500.00,504.80 1010.40,504.80"/>
        <lane id="right0B0_1" index="1" speed="13.89" length="489.60" shape="1500.00,501.60 1010.40,501.60"/>
    </edge>
    <edge id="right1B1" from="right1" to="B1" priority="-1">
        <lane id="right1B1_0" index="0" speed="13.89" length="489.60" shape="1500.00,1004.80 1010.40,1004.80"/>
        <lane id="right1B1_1" index="1" speed="13.89" length="489.60" shape="1500.00,1001.60 1010.40,1001.60"/>
    </edge>
    <edge id="top0A1" from="top0" to="A1" priority="-1">
        <lane id="top0A1_0" index="0" speed="13.89" length="489.60" shape="495.20,1500.00 495.20,1010.40"/>
        <lane id="top0A1_1" index="1" speed="13.89" length="489.60" shape="498.40,1500.00 498.40,1010.40"/>
    </edge>
    <edge id="top1B1" from="top1" to="B1" priority="-1">
        <lane id="top1B1_0" index="0" speed="13.89" length="489.60" shape="995.20,1500.00 995.20,1010.40"/>
        <lane id="top1B1_1" index="1" speed="13.89" length="489.60" shape="998.40,1500.00 998.40,1010.40"/>
    </edge>

    <tlLogic id="A0" type="static" programID="0" offset="0">
        <phase duration="42" state="GGGggrrrrrGGGggrrrrr"/>
        <phase duration="3"  state="yyyyyrrrrryyyyyrrrrr"/>
        <phase duration="42" state="rrrrrGGGggrrrrrGGGgg"/>
        <phase duration="3"  state="rrrrryyyyyrrrrryyyyy"/>
    </tlLogic>
    <tlLogic id="A1" type="static" programID="0" offset="0">
        <phase duration="42" state="GGGggrrrrrGGGggrrrrr"/>
        <phase duration="3"  state="yyyyyrrrrryyyyyrrrrr"/>
        <phase duration="42" state="rrrrrGGGggrrrrrGGGgg"/>
        <phase duration="3"  state="rrrrryyyyyrrrrryyyyy"/>
    </tlLogic>
    <tlLogic id="B0" type="static" programID="0" offset="0">
        <phase duration="42" state="GGGggrrrrrGGGggrrrrr"/>
        <phase duration="3"  state="yyyyyrrrrryyyyyrrrrr"/>
        <phase duration="42" state="rrrrrGGGggrrrrrGGGgg"/>
        <phase duration="3"  state="rrrrryyyyyrrrrryyyyy"/>
    </tlLogic>
    <tlLogic id="B1" type="static" programID="0" offset="0">
        <phase duration="42" state="GGGggrrrrrGGGggrrrrr"/>
        <phase duration="3"  state="yyyyyrrrrryyyyyrrrrr"/>
        <phase duration="42" state="rrrrrGGGggrrrrrGGGgg"/>
        <phase duration="3"  state="rrrrryyyyyrrrrryyyyy"/>
    </tlLogic>
