<?xml version="1.0" encoding="UTF-8"?>
<connections xmlns:xsi="http://www.w3.org/2001/XMLSchema-instance" xsi:noNamespaceSchemaLocation="http://sumo.dlr.de/xsd/connections_file.xsd">
    <connection from="left1A1" to="A1B1" fromLane="0" toLane="0"/>
    <connection from="A1B1" to="B1right1" fromLane="0" toLane="0"/>

    <connection from="A1B1" to="left1A1" fromLane="0" toLane="0"/>
    <connection from="B1right1" to="A1B1" fromLane="0" toLane="0"/>

    <connection from="left0A0" to="A0B0" fromLane="0" toLane="0"/>
    <connection from="A0B0" to="B0right0" fromLane="0" toLane="0"/>

    <connection from="A0B0" to="left0A0" fromLane="0" toLane="0"/>
    <connection from="B0right0" to="A0B0" fromLane="0" toLane="0"/>

    <connection from="bottom0A0" to="A0A1" fromLane="0" toLane="0"/>
    <connection from="A0A1" to="A1top0" fromLane="0" toLane="0"/>

    <connection from="A0A1" to="bottom0A0" fromLane="0" toLane="0"/>
    <connection from="A1top0" to="A0A1" fromLane="0" toLane="0"/>

    <connection from="bottom1B0" to="B0B1" fromLane="0" toLane="0"/>
    <connection from="B0B1" to="B1top1" fromLane="0" toLane="0"/>

    <connection from="B0B1" to="bottom1B0" fromLane="0" toLane="0"/>
    <connection from="B1top1" to="B0B1" fromLane="0" toLane="0"/>
</connections>