<?xml version="1.0" encoding="UTF-8"?>

<!-- generated on Tue Mar 30 13:49:33 2021 by Eclipse SUMO netconvert Version 1.6.0
<configuration xmlns:xsi="http://www.w3.org/2001/XMLSchema-instance" xsi:noNamespaceSchemaLocation="http://sumo.dlr.de/xsd/netconvertConfiguration.xsd">

    <input>
        <node-files value="true.nod.xml"/>
        <edge-files value="true.edg.xml"/>
        <connection-files value="true.con.xml"/>
    </input>

    <output>
        <output-file value="true.net.xml"/>
    </output>

    <report>
        <aggregate-warnings value="5"/>
    </report>

</configuration>
-->

<net version="1.6" junctionCornerDetail="5" limitTurnSpeed="5.50" xmlns:xsi="http://www.w3.org/2001/XMLSchema-instance" xsi:noNamespaceSchemaLocation="http://sumo.dlr.de/xsd/net_file.xsd">

    <location netOffset="0.00,0.00" convBoundary="0.00,0.00,1500.00,1500.00" origBoundary="0.00,0.00,3500.00,3500.00" projParameter="!"/>

    <edge id=":A0_0" function="internal">
        <lane id=":A0_0_0" index="0" speed="13.89" length="14.40" shape="498.40,507.20 498.40,492.80"/>
    </edge>
    <edge id=":A0_1" function="internal">
        <lane id=":A0_1_0" index="0" speed="13.89" length="14.40" shape="507.20,501.60 492.80,501.60"/>
    </edge>
    <edge id=":A0_2" function="internal">
        <lane id=":A0_2_0" index="0" speed="13.89" length="14.40" shape="501.60,492.80 501.60,507.20"/>
    </edge>
    <edge id=":A0_3" function="internal">
        <lane id=":A0_3_0" index="0" speed="13.89" length="14.40" shape="492.80,498.40 507.20,498.40"/>
    </edge>
    <edge id=":A1_0" function="internal">
        <lane id=":A1_0_0" index="0" speed="13.89" length="14.40" shape="498.40,1007.20 498.40,992.80"/>
    </edge>
    <edge id=":A1_1" function="internal">
        <lane id=":A1_1_0" index="0" speed="13.89" length="14.40" shape="507.20,1001.60 492.80,1001.60"/>
    </edge>
    <edge id=":A1_2" function="internal">
        <lane id=":A1_2_0" index="0" speed="13.89" length="14.40" shape="501.60,992.80 501.60,1007.20"/>
    </edge>
    <edge id=":A1_3" function="internal">
        <lane id=":A1_3_0" index="0" speed="13.89" length="14.40" shape="492.80,998.40 507.20,998.40"/>
    </edge>
    <edge id=":B0_0" function="internal">
        <lane id=":B0_0_0" index="0" speed="13.89" length="14.40" shape="998.40,507.20 998.40,492.80"/>
    </edge>
    <edge id=":B0_1" function="internal">
        <lane id=":B0_1_0" index="0" speed="13.89" length="14.40" shape="1007.20,501.60 992.80,501.60"/>
    </edge>
    <edge id=":B0_2" function="internal">
        <lane id=":B0_2_0" index="0" speed="13.89" length="14.40" shape="1001.60,492.80 1001.60,507.20"/>
    </edge>
    <edge id=":B0_3" function="internal">
        <lane id=":B0_3_0" index="0" speed="13.89" length="14.40" shape="992.80,498.40 1007.20,498.40"/>
    </edge>
    <edge id=":B1_0" function="internal">
        <lane id=":B1_0_0" index="0" speed="13.89" length="14.40" shape="998.40,1007.20 998.40,992.80"/>
    </edge>
    <edge id=":B1_1" function="internal">
        <lane id=":B1_1_0" index="0" speed="13.89" length="14.40" shape="1007.20,1001.60 992.80,1001.60"/>
    </edge>
    <edge id=":B1_2" function="internal">
        <lane id=":B1_2_0" index="0" speed="13.89" length="14.40" shape="1001.60,992.80 1001.60,1007.20"/>
    </edge>
    <edge id=":B1_3" function="internal">
        <lane id=":B1_3_0" index="0" speed="13.89" length="14.40" shape="992.80,998.40 1007.20,998.40"/>
    </edge>
    <edge id=":bottom0_0" function="internal">
        <lane id=":bottom0_0_0" index="0" speed="3.65" length="4.67" shape="498.40,0.00 499.20,-1.20 500.00,-1.60 500.80,-1.20 501.60,0.00"/>
    </edge>
    <edge id=":bottom1_0" function="internal">
        <lane id=":bottom1_0_0" index="0" speed="3.65" length="4.67" shape="998.40,0.00 999.20,-1.20 1000.00,-1.60 1000.80,-1.20 1001.60,0.00"/>
    </edge>
    <edge id=":left0_0" function="internal">
        <lane id=":left0_0_0" index="0" speed="3.65" length="4.67" shape="0.00,501.60 -1.20,500.80 -1.60,500.00 -1.20,499.20 0.00,498.40"/>
    </edge>
    <edge id=":left1_0" function="internal">
        <lane id=":left1_0_0" index="0" speed="3.65" length="4.67" shape="0.00,1001.60 -1.20,1000.80 -1.60,1000.00 -1.20,999.20 0.00,998.40"/>
    </edge>
    <edge id=":right0_0" function="internal">
        <lane id=":right0_0_0" index="0" speed="3.65" length="4.67" shape="1500.00,498.40 1501.20,499.20 1501.60,500.00 1501.20,500.80 1500.00,501.60"/>
    </edge>
    <edge id=":right1_0" function="internal">
        <lane id=":right1_0_0" index="0" speed="3.65" length="4.67" shape="1500.00,998.40 1501.20,999.20 1501.60,1000.00 1501.20,1000.80 1500.00,1001.60"/>
    </edge>
    <edge id=":top0_0" function="internal">
        <lane id=":top0_0_0" index="0" speed="3.65" length="4.67" shape="501.60,1500.00 500.80,1501.20 500.00,1501.60 499.20,1501.20 498.40,1500.00"/>
    </edge>
    <edge id=":top1_0" function="internal">
        <lane id=":top1_0_0" index="0" speed="3.65" length="4.67" shape="1001.60,1500.00 1000.80,1501.20 1000.00,1501.60 999.20,1501.20 998.40,1500.00"/>
    </edge>

    <edge id="A0A1" from="A0" to="A1" priority="-1">
        <lane id="A0A1_0" index="0" speed="13.89" length="485.60" shape="501.60,507.20 501.60,992.80"/>
    </edge>
    <edge id="A0B0" from="A0" to="B0" priority="-1">
        <lane id="A0B0_0" index="0" speed="13.89" length="485.60" shape="507.20,498.40 992.80,498.40"/>
    </edge>
    <edge id="A0bottom0" from="A0" to="bottom0" priority="-1">
        <lane id="A0bottom0_0" index="0" speed="13.89" length="492.80" shape="498.40,492.80 498.40,0.00"/>
    </edge>
    <edge id="A0left0" from="A0" to="left0" priority="-1">
        <lane id="A0left0_0" index="0" speed="13.89" length="492.80" shape="492.80,501.60 0.00,501.60"/>
    </edge>
    <edge id="A1A0" from="A1" to="A0" priority="-1">
        <lane id="A1A0_0" index="0" speed="13.89" length="485.60" shape="498.40,992.80 498.40,507.20"/>
    </edge>
    <edge id="A1B1" from="A1" to="B1" priority="-1">
        <lane id="A1B1_0" index="0" speed="13.89" length="485.60" shape="507.20,998.40 992.80,998.40"/>
    </edge>
    <edge id="A1left1" from="A1" to="left1" priority="-1">
        <lane id="A1left1_0" index="0" speed="13.89" length="492.80" shape="492.80,1001.60 0.00,1001.60"/>
    </edge>
    <edge id="A1top0" from="A1" to="top0" priority="-1">
        <lane id="A1top0_0" index="0" speed="13.89" length="492.80" shape="501.60,1007.20 501.60,1500.00"/>
    </edge>
    <edge id="B0A0" from="B0" to="A0" priority="-1">
        <lane id="B0A0_0" index="0" speed="13.89" length="485.60" shape="992.80,501.60 507.20,501.60"/>
    </edge>
    <edge id="B0B1" from="B0" to="B1" priority="-1">
        <lane id="B0B1_0" index="0" speed="13.89" length="485.60" shape="1001.60,507.20 1001.60,992.80"/>
    </edge>
    <edge id="B0bottom1" from="B0" to="bottom1" priority="-1">
        <lane id="B0bottom1_0" index="0" speed="13.89" length="492.80" shape="998.40,492.80 998.40,0.00"/>
    </edge>
    <edge id="B0right0" from="B0" to="right0" priority="-1">
        <lane id="B0right0_0" index="0" speed="13.89" length="492.80" shape="1007.20,498.40 1500.00,498.40"/>
    </edge>
    <edge id="B1A1" from="B1" to="A1" priority="-1">
        <lane id="B1A1_0" index="0" speed="13.89" length="485.60" shape="992.80,1001.60 507.20,1001.60"/>
    </edge>
    <edge id="B1B0" from="B1" to="B0" priority="-1">
        <lane id="B1B0_0" index="0" speed="13.89" length="485.60" shape="998.40,992.80 998.40,507.20"/>
    </edge>
    <edge id="B1right1" from="B1" to="right1" priority="-1">
        <lane id="B1right1_0" index="0" speed="13.89" length="492.80" shape="1007.20,998.40 1500.00,998.40"/>
    </edge>
    <edge id="B1top1" from="B1" to="top1" priority="-1">
        <lane id="B1top1_0" index="0" speed="13.89" length="492.80" shape="1001.60,1007.20 1001.60,1500.00"/>
    </edge>
    <edge id="bottom0A0" from="bottom0" to="A0" priority="-1">
        <lane id="bottom0A0_0" index="0" speed="13.89" length="492.80" shape="501.60,0.00 501.60,492.80"/>
    </edge>
    <edge id="bottom1B0" from="bottom1" to="B0" priority="-1">
        <lane id="bottom1B0_0" index="0" speed="13.89" length="492.80" shape="1001.60,0.00 1001.60,492.80"/>
    </edge>
    <edge id="left0A0" from="left0" to="A0" priority="-1">
        <lane id="left0A0_0" index="0" speed="13.89" length="492.80" shape="0.00,498.40 492.80,498.40"/>
    </edge>
    <edge id="left1A1" from="left1" to="A1" priority="-1">
        <lane id="left1A1_0" index="0" speed="13.89" length="492.80" shape="0.00,998.40 492.80,998.40"/>
    </edge>
    <edge id="right0B0" from="right0" to="B0" priority="-1">
        <lane id="right0B0_0" index="0" speed="13.89" length="492.80" shape="1500.00,501.60 1007.20,501.60"/>
    </edge>
    <edge id="right1B1" from="right1" to="B1" priority="-1">
        <lane id="right1B1_0" index="0" speed="13.89" length="492.80" shape="1500.00,1001.60 1007.20,1001.60"/>
    </edge>
    <edge id="top0A1" from="top0" to="A1" priority="-1">
        <lane id="top0A1_0" index="0" speed="13.89" length="492.80" shape="498.40,1500.00 498.40,1007.20"/>
    </edge>
    <edge id="top1B1" from="top1" to="B1" priority="-1">
        <lane id="top1B1_0" index="0" speed="13.89" length="492.80" shape="998.40,1500.00 998.40,1007.20"/>
    </edge>

    <tlLogic id="A0" type="static" programID="0" offset="0">
        <phase duration="42" state="GrGr"/>
        <phase duration="3"  state="yryr"/>
        <phase duration="42" state="rGrG"/>
        <phase duration="3"  state="ryry"/>
    </tlLogic>
    <tlLogic id="A1" type="static" programID="0" offset="0">
        <phase duration="42" state="GrGr"/>
        <phase duration="3"  state="yryr"/>
        <phase duration="42" state="rGrG"/>
        <phase duration="3"  state="ryry"/>
    </tlLogic>
    <tlLogic id="B0" type="static" programID="0" offset="0">
        <phase duration="42" state="GrGr"/>
        <phase duration="3"  state="yryr"/>
        <phase duration="42" state="rGrG"/>
        <phase duration="3"  state="ryry"/>
    </tlLogic>
    <tlLogic id="B1" type="static" programID="0" offset="0">
        <phase duration="42" state="GrGr"/>
        <phase duration="3"  state="yryr"/>
        <phase duration="42" state="rGrG"/>
        <phase duration="3"  state="ryry"/>
    </tlLogic>

    <junction id="A0" type="traffic_light" x="500.00" y="500.00" incLanes="A1A0_0 B0A0_0 bottom0A0_0 left0A0_0" intLanes=":A0_0_0 :A0_1_0 :A0_2_0 :A0_3_0" shape="496.80,507.20 503.20,507.20 503.64,504.98 504.20,504.20 504.98,503.64 505.98,503.31 507.20,503.20 507.20,496.80 504.98,496.36 504.20,495.80 503.64,495.02 503.31,494.02 503.20,492.80 496.80,492.80 496.36,495.02 495.80,495.80 495.02,496.36 494.02,496.69 492.80,496.80 492.80,503.20 495.02,503.64 495.80,504.20 496.36,504.98 496.69,505.98">
        <request index="0" response="0000" foes="1010" cont="0"/>
        <request index="1" response="0101" foes="0101" cont="0"/>
        <request index="2" response="0000" foes="1010" cont="0"/>
        <request index="3" response="0101" foes="0101" cont="0"/>
    </junction>
    <junction id="A1" type="traffic_light" x="500.00" y="1000.00" incLanes="top0A1_0 B1A1_0 A0A1_0 left1A1_0" intLanes=":A1_0_0 :A1_1_0 :A1_2_0 :A1_3_0" shape="496.80,1007.20 503.20,1007.20 503.64,1004.98 504.20,1004.20 504.98,1003.64 505.98,1003.31 507.20,1003.20 507.20,996.80 504.98,996.36 504.20,995.80 503.64,995.02 503.31,994.02 503.20,992.80 496.80,992.80 496.36,995.02 495.80,995.80 495.02,996.36 494.02,996.69 492.80,996.80 492.80,1003.20 495.02,1003.64 495.80,1004.20 496.36,1004.98 496.69,1005.98">
        <request index="0" response="0000" foes="1010" cont="0"/>
        <request index="1" response="0101" foes="0101" cont="0"/>
        <request index="2" response="0000" foes="1010" cont="0"/>
        <request index="3" response="0101" foes="0101" cont="0"/>
    </junction>
    <junction id="B0" type="traffic_light" x="1000.00" y="500.00" incLanes="B1B0_0 right0B0_0 bottom1B0_0 A0B0_0" intLanes=":B0_0_0 :B0_1_0 :B0_2_0 :B0_3_0" shape="996.80,507.20 1003.20,507.20 1003.64,504.98 1004.20,504.20 1004.98,503.64 1005.98,503.31 1007.20,503.20 1007.20,496.80 1004.98,496.36 1004.20,495.80 1003.64,495.02 1003.31,494.02 1003.20,492.80 996.80,492.80 996.36,495.02 995.80,495.80 995.02,496.36 994.02,496.69 992.80,496.80 992.80,503.20 995.02,503.64 995.80,504.20 996.36,504.98 996.69,505.98">
        <request index="0" response="0000" foes="1010" cont="0"/>
        <request index="1" response="0101" foes="0101" cont="0"/>
        <request index="2" response="0000" foes="1010" cont="0"/>
        <request index="3" response="0101" foes="0101" cont="0"/>
    </junction>
    <junction id="B1" type="traffic_light" x="1000.00" y="1000.00" incLanes="top1B1_0 right1B1_0 B0B1_0 A1B1_0" intLanes=":B1_0_0 :B1_1_0 :B1_2_0 :B1_3_0" shape="996.80,1007.20 1003.20,1007.20 1003.64,1004.98 1004.20,1004.20 1004.98,1003.64 1005.98,1003.31 1007.20,1003.20 1007.20,996.80 1004.98,996.36 1004.20,995.80 1003.64,995.02 1003.31,994.02 1003.20,992.80 996.80,992.80 996.36,995.02 995.80,995.80 995.02,996.36 994.02,996.69 992.80,996.80 992.80,1003.20 995.02,1003.64 995.80,1004.20 996.36,1004.98 996.69,1005.98">
        <request index="0" response="0000" foes="1010" cont="0"/>
        <request index="1" response="0101" foes="0101" cont="0"/>
        <request index="2" response="0000" foes="1010" cont="0"/>
        <request index="3" response="0101" foes="0101" cont="0"/>
    </junction>
    <junction id="bottom0" type="priority" x="500.00" y="0.00" incLanes="A0bottom0_0" intLanes=":bottom0_0_0" shape="500.00,0.00 496.80,0.00 500.00,0.00">
        <request index="0" response="0" foes="0" cont="0"/>
    </junction>
    <junction id="bottom1" type="priority" x="1000.00" y="0.00" incLanes="B0bottom1_0" intLanes=":bottom1_0_0" shape="1000.00,0.00 996.80,0.00 1000.00,0.00">
        <request index="0" response="0" foes="0" cont="0"/>
    </junction>
    <junction id="left0" type="priority" x="0.00" y="500.00" incLanes="A0left0_0" intLanes=":left0_0_0" shape="0.00,500.00 0.00,503.20 0.00,500.00">
        <request index="0" response="0" foes="0" cont="0"/>
    </junction>
    <junction id="left1" type="priority" x="0.00" y="1000.00" incLanes="A1left1_0" intLanes=":left1_0_0" shape="0.00,1000.00 0.00,1003.20 0.00,1000.00">
        <request index="0" response="0" foes="0" cont="0"/>
    </junction>
    <junction id="right0" type="priority" x="1500.00" y="500.00" incLanes="B0right0_0" intLanes=":right0_0_0" shape="1500.00,500.00 1500.00,496.80 1500.00,500.00">
        <request index="0" response="0" foes="0" cont="0"/>
    </junction>
    <junction id="right1" type="priority" x="1500.00" y="1000.00" incLanes="B1right1_0" intLanes=":right1_0_0" shape="1500.00,1000.00 1500.00,996.80 1500.00,1000.00">
        <request index="0" response="0" foes="0" cont="0"/>
    </junction>
    <junction id="top0" type="priority" x="500.00" y="1500.00" incLanes="A1top0_0" intLanes=":top0_0_0" shape="500.00,1500.00 503.20,1500.00 500.00,1500.00">
        <request index="0" response="0" foes="0" cont="0"/>
    </junction>
    <junction id="top1" type="priority" x="1000.00" y="1500.00" incLanes="B1top1_0" intLanes=":top1_0_0" shape="1000.00,1500.00 1003.20,1500.00 1000.00,1500.00">
        <request index="0" response="0" foes="0" cont="0"/>
    </junction>

    <connection from="A0A1" to="A1top0" fromLane="0" toLane="0" via=":A1_2_0" tl="A1" linkIndex="2" dir="s" state="O"/>
    <connection from="A0B0" to="B0right0" fromLane="0" toLane="0" via=":B0_3_0" tl="B0" linkIndex="3" dir="s" state="o"/>
    <connection from="A0bottom0" to="bottom0A0" fromLane="0" toLane="0" via=":bottom0_0_0" dir="t" state="M"/>
    <connection from="A0left0" to="left0A0" fromLane="0" toLane="0" via=":left0_0_0" dir="t" state="M"/>
    <connection from="A1A0" to="A0bottom0" fromLane="0" toLane="0" via=":A0_0_0" tl="A0" linkIndex="0" dir="s" state="O"/>
    <connection from="A1B1" to="B1right1" fromLane="0" toLane="0" via=":B1_3_0" tl="B1" linkIndex="3" dir="s" state="o"/>
    <connection from="A1left1" to="left1A1" fromLane="0" toLane="0" via=":left1_0_0" dir="t" state="M"/>
    <connection from="A1top0" to="top0A1" fromLane="0" toLane="0" via=":top0_0_0" dir="t" state="M"/>
    <connection from="B0A0" to="A0left0" fromLane="0" toLane="0" via=":A0_1_0" tl="A0" linkIndex="1" dir="s" state="o"/>
    <connection from="B0B1" to="B1top1" fromLane="0" toLane="0" via=":B1_2_0" tl="B1" linkIndex="2" dir="s" state="O"/>
    <connection from="B0bottom1" to="bottom1B0" fromLane="0" toLane="0" via=":bottom1_0_0" dir="t" state="M"/>
    <connection from="B0right0" to="right0B0" fromLane="0" toLane="0" via=":right0_0_0" dir="t" state="M"/>
    <connection from="B1A1" to="A1left1" fromLane="0" toLane="0" via=":A1_1_0" tl="A1" linkIndex="1" dir="s" state="o"/>
    <connection from="B1B0" to="B0bottom1" fromLane="0" toLane="0" via=":B0_0_0" tl="B0" linkIndex="0" dir="s" state="O"/>
    <connection from="B1right1" to="right1B1" fromLane="0" toLane="0" via=":right1_0_0" dir="t" state="M"/>
    <connection from="B1top1" to="top1B1" fromLane="0" toLane="0" via=":top1_0_0" dir="t" state="M"/>
    <connection from="bottom0A0" to="A0A1" fromLane="0" toLane="0" via=":A0_2_0" tl="A0" linkIndex="2" dir="s" state="O"/>
    <connection from="bottom1B0" to="B0B1" fromLane="0" toLane="0" via=":B0_2_0" tl="B0" linkIndex="2" dir="s" state="O"/>
    <connection from="left0A0" to="A0B0" fromLane="0" toLane="0" via=":A0_3_0" tl="A0" linkIndex="3" dir="s" state="o"/>
    <connection from="left1A1" to="A1B1" fromLane="0" toLane="0" via=":A1_3_0" tl="A1" linkIndex="3" dir="s" state="o"/>
    <connection from="right0B0" to="B0A0" fromLane="0" toLane="0" via=":B0_1_0" tl="B0" linkIndex="1" dir="s" state="o"/>
    <connection from="right1B1" to="B1A1" fromLane="0" toLane="0" via=":B1_1_0" tl="B1" linkIndex="1" dir="s" state="o"/>
    <connection from="top0A1" to="A1A0" fromLane="0" toLane="0" via=":A1_0_0" tl="A1" linkIndex="0" dir="s" state="O"/>
    <connection from="top1B1" to="B1B0" fromLane="0" toLane="0" via=":B1_0_0" tl="B1" linkIndex="0" dir="s" state="O"/>

    <connection from=":A0_0" to="A0bottom0" fromLane="0" toLane="0" dir="s" state="M"/>
    <connection from=":A0_1" to="A0left0" fromLane="0" toLane="0" dir="s" state="M"/>
    <connection from=":A0_2" to="A0A1" fromLane="0" toLane="0" dir="s" state="M"/>
    <connection from=":A0_3" to="A0B0" fromLane="0" toLane="0" dir="s" state="M"/>
    <connection from=":A1_0" to="A1A0" fromLane="0" toLane="0" dir="s" state="M"/>
    <connection from=":A1_1" to="A1left1" fromLane="0" toLane="0" dir="s" state="M"/>
    <connection from=":A1_2" to="A1top0" fromLane="0" toLane="0" dir="s" state="M"/>
    <connection from=":A1_3" to="A1B1" fromLane="0" toLane="0" dir="s" state="M"/>
    <connection from=":B0_0" to="B0bottom1" fromLane="0" toLane="0" dir="s" state="M"/>
    <connection from=":B0_1" to="B0A0" fromLane="0" toLane="0" dir="s" state="M"/>
    <connection from=":B0_2" to="B0B1" fromLane="0" toLane="0" dir="s" state="M"/>
    <connection from=":B0_3" to="B0right0" fromLane="0" toLane="0" dir="s" state="M"/>
    <connection from=":B1_0" to="B1B0" fromLane="0" toLane="0" dir="s" state="M"/>
    <connection from=":B1_1" to="B1A1" fromLane="0" toLane="0" dir="s" state="M"/>
    <connection from=":B1_2" to="B1top1" fromLane="0" toLane="0" dir="s" state="M"/>
    <connection from=":B1_3" to="B1right1" fromLane="0" toLane="0" dir="s" state="M"/>
    <connection from=":bottom0_0" to="bottom0A0" fromLane="0" toLane="0" dir="t" state="M"/>
    <connection from=":bottom1_0" to="bottom1B0" fromLane="0" toLane="0" dir="t" state="M"/>
    <connection from=":left0_0" to="left0A0" fromLane="0" toLane="0" dir="t" state="M"/>
    <connection from=":left1_0" to="left1A1" fromLane="0" toLane="0" dir="t" state="M"/>
    <connection from=":right0_0" to="right0B0" fromLane="0" toLane="0" dir="t" state="M"/>
    <connection from=":right1_0" to="right1B1" fromLane="0" toLane="0" dir="t" state="M"/>
    <connection from=":top0_0" to="top0A1" fromLane="0" toLane="0" dir="t" state="M"/>
    <connection from=":top1_0" to="top1B1" fromLane="0" toLane="0" dir="t" state="M"/>

</net>
