<?xml version="1.0" encoding="UTF-8"?>

<!-- generated on Sun Sep  6 17:55:11 2020 by Eclipse SUMO netconvert Version 1.6.0
<configuration xmlns:xsi="http://www.w3.org/2001/XMLSchema-instance" xsi:noNamespaceSchemaLocation="http://sumo.dlr.de/xsd/netconvertConfiguration.xsd">

    <input>
        <node-files value="cross.nod.xml"/>
        <edge-files value="cross.edg.xml"/>
        <connection-files value="cross.con.xml"/>
    </input>

    <output>
        <output-file value="a.net.xml"/>
    </output>

    <report>
        <aggregate-warnings value="5"/>
    </report>

</configuration>
-->

<net version="1.6" junctionCornerDetail="5" limitTurnSpeed="5.50" xmlns:xsi="http://www.w3.org/2001/XMLSchema-instance" xsi:noNamespaceSchemaLocation="http://sumo.dlr.de/xsd/net_file.xsd">

    <location netOffset="500.00,500.00" convBoundary="0.00,0.00,1000.00,1000.00" origBoundary="-500.00,-500.00,500.00,500.00" projParameter="!"/>

    <edge id=":0_0" function="internal">
        <lane id=":0_0_0" index="0" speed="6.51" length="9.03" shape="488.80,516.80 488.45,514.35 487.40,512.60 485.65,511.55 483.20,511.20"/>
    </edge>
    <edge id=":0_1" function="internal">
        <lane id=":0_1_0" index="0" speed="25.00" length="33.60" shape="492.00,516.80 492.00,483.20"/>
        <lane id=":0_1_1" index="1" speed="25.00" length="33.60" shape="495.20,516.80 495.20,483.20"/>
    </edge>
    <edge id=":0_3" function="internal">
        <lane id=":0_3_0" index="0" speed="11.36" length="15.07" shape="498.40,516.80 499.55,508.75 503.00,503.00 503.20,502.88"/>
    </edge>
    <edge id=":0_16" function="internal">
        <lane id=":0_16_0" index="0" speed="11.36" length="14.60" shape="503.20,502.88 508.75,499.55 516.80,498.40"/>
    </edge>
    <edge id=":0_4" function="internal">
        <lane id=":0_4_0" index="0" speed="6.51" length="9.03" shape="516.80,511.20 514.35,511.55 512.60,512.60 511.55,514.35 511.20,516.80"/>
    </edge>
    <edge id=":0_5" function="internal">
        <lane id=":0_5_0" index="0" speed="25.00" length="33.60" shape="516.80,508.00 483.20,508.00"/>
        <lane id=":0_5_1" index="1" speed="25.00" length="33.60" shape="516.80,504.80 483.20,504.80"/>
    </edge>
    <edge id=":0_7" function="internal">
        <lane id=":0_7_0" index="0" speed="11.36" length="15.07" shape="516.80,501.60 508.75,500.45 503.00,497.00 502.88,496.80"/>
    </edge>
    <edge id=":0_17" function="internal">
        <lane id=":0_17_0" index="0" speed="11.36" length="14.60" shape="502.88,496.80 499.55,491.25 498.40,483.20"/>
    </edge>
    <edge id=":0_8" function="internal">
        <lane id=":0_8_0" index="0" speed="6.51" length="9.03" shape="511.20,483.20 511.55,485.65 512.60,487.40 514.35,488.45 516.80,488.80"/>
    </edge>
    <edge id=":0_9" function="internal">
        <lane id=":0_9_0" index="0" speed="25.00" length="33.60" shape="508.00,483.20 508.00,516.80"/>
        <lane id=":0_9_1" index="1" speed="25.00" length="33.60" shape="504.80,483.20 504.80,516.80"/>
    </edge>
    <edge id=":0_11" function="internal">
        <lane id=":0_11_0" index="0" speed="11.36" length="15.07" shape="501.60,483.20 500.45,491.25 497.00,497.00 496.80,497.12"/>
    </edge>
    <edge id=":0_18" function="internal">
        <lane id=":0_18_0" index="0" speed="11.36" length="14.60" shape="496.80,497.12 491.25,500.45 483.20,501.60"/>
    </edge>
    <edge id=":0_12" function="internal">
        <lane id=":0_12_0" index="0" speed="6.51" length="9.03" shape="483.20,488.80 485.65,488.45 487.40,487.40 488.45,485.65 488.80,483.20"/>
    </edge>
    <edge id=":0_13" function="internal">
        <lane id=":0_13_0" index="0" speed="25.00" length="33.60" shape="483.20,492.00 516.80,492.00"/>
        <lane id=":0_13_1" index="1" speed="25.00" length="33.60" shape="483.20,495.20 516.80,495.20"/>
    </edge>
    <edge id=":0_15" function="internal">
        <lane id=":0_15_0" index="0" speed="11.36" length="15.07" shape="483.20,498.40 491.25,499.55 497.00,503.00 497.12,503.20"/>
    </edge>
    <edge id=":0_19" function="internal">
        <lane id=":0_19_0" index="0" speed="11.36" length="14.60" shape="497.12,503.20 500.45,508.75 501.60,516.80"/>
    </edge>
    <edge id=":1_0" function="internal">
        <lane id=":1_0_0" index="0" speed="3.65" length="4.67" shape="0.00,501.60 -1.20,500.80 -1.60,500.00 -1.20,499.20 0.00,498.40"/>
    </edge>
    <edge id=":2_0" function="internal">
        <lane id=":2_0_0" index="0" speed="3.65" length="4.67" shape="1000.00,498.40 1001.20,499.20 1001.60,500.00 1001.20,500.80 1000.00,501.60"/>
    </edge>
    <edge id=":3_0" function="internal">
        <lane id=":3_0_0" index="0" speed="3.65" length="4.67" shape="498.40,0.00 499.20,-1.20 500.00,-1.60 500.80,-1.20 501.60,0.00"/>
    </edge>
    <edge id=":4_0" function="internal">
        <lane id=":4_0_0" index="0" speed="3.65" length="4.67" shape="501.60,1000.00 500.80,1001.20 500.00,1001.60 499.20,1001.20 498.40,1000.00"/>
    </edge>

    <edge id="1i" from="1" to="0" priority="78">
        <lane id="1i_0" index="0" speed="25.00" length="483.20" shape="0.00,488.80 483.20,488.80"/>
        <lane id="1i_1" index="1" speed="25.00" length="483.20" shape="0.00,492.00 483.20,492.00"/>
        <lane id="1i_2" index="2" speed="25.00" length="483.20" shape="0.00,495.20 483.20,495.20"/>
        <lane id="1i_3" index="3" speed="25.00" length="483.20" shape="0.00,498.40 483.20,498.40"/>
    </edge>
    <edge id="1o" from="0" to="1" priority="46">
        <lane id="1o_0" index="0" speed="25.00" length="483.20" shape="483.20,511.20 0.00,511.20"/>
        <lane id="1o_1" index="1" speed="25.00" length="483.20" shape="483.20,508.00 0.00,508.00"/>
        <lane id="1o_2" index="2" speed="25.00" length="483.20" shape="483.20,504.80 0.00,504.80"/>
        <lane id="1o_3" index="3" speed="25.00" length="483.20" shape="483.20,501.60 0.00,501.60"/>
    </edge>
    <edge id="2i" from="2" to="0" priority="78">
        <lane id="2i_0" index="0" speed="25.00" length="483.20" shape="1000.00,511.20 516.80,511.20"/>
        <lane id="2i_1" index="1" speed="25.00" length="483.20" shape="1000.00,508.00 516.80,508.00"/>
        <lane id="2i_2" index="2" speed="25.00" length="483.20" shape="1000.00,504.80 516.80,504.80"/>
        <lane id="2i_3" index="3" speed="25.00" length="483.20" shape="1000.00,501.60 516.80,501.60"/>
    </edge>
    <edge id="2o" from="0" to="2" priority="46">
        <lane id="2o_0" index="0" speed="25.00" length="483.20" shape="516.80,488.80 1000.00,488.80"/>
        <lane id="2o_1" index="1" speed="25.00" length="483.20" shape="516.80,492.00 1000.00,492.00"/>
        <lane id="2o_2" index="2" speed="25.00" length="483.20" shape="516.80,495.20 1000.00,495.20"/>
        <lane id="2o_3" index="3" speed="25.00" length="483.20" shape="516.80,498.40 1000.00,498.40"/>
    </edge>
    <edge id="3i" from="3" to="0" priority="78">
        <lane id="3i_0" index="0" speed="25.00" length="483.20" shape="511.20,0.00 511.20,483.20"/>
        <lane id="3i_1" index="1" speed="25.00" length="483.20" shape="508.00,0.00 508.00,483.20"/>
        <lane id="3i_2" index="2" speed="25.00" length="483.20" shape="504.80,0.00 504.80,483.20"/>
        <lane id="3i_3" index="3" speed="25.00" length="483.20" shape="501.60,0.00 501.60,483.20"/>
    </edge>
    <edge id="3o" from="0" to="3" priority="46">
        <lane id="3o_0" index="0" speed="25.00" length="483.20" shape="488.80,483.20 488.80,0.00"/>
        <lane id="3o_1" index="1" speed="25.00" length="483.20" shape="492.00,483.20 492.00,0.00"/>
        <lane id="3o_2" index="2" speed="25.00" length="483.20" shape="495.20,483.20 495.20,0.00"/>
        <lane id="3o_3" index="3" speed="25.00" length="483.20" shape="498.40,483.20 498.40,0.00"/>
    </edge>
    <edge id="4i" from="4" to="0" priority="78">
        <lane id="4i_0" index="0" speed="25.00" length="483.20" shape="488.80,1000.00 488.80,516.80"/>
        <lane id="4i_1" index="1" speed="25.00" length="483.20" shape="492.00,1000.00 492.00,516.80"/>
        <lane id="4i_2" index="2" speed="25.00" length="483.20" shape="495.20,1000.00 495.20,516.80"/>
        <lane id="4i_3" index="3" speed="25.00" length="483.20" shape="498.40,1000.00 498.40,516.80"/>
    </edge>
    <edge id="4o" from="0" to="4" priority="46">
        <lane id="4o_0" index="0" speed="25.00" length="483.20" shape="511.20,516.80 511.20,1000.00"/>
        <lane id="4o_1" index="1" speed="25.00" length="483.20" shape="508.00,516.80 508.00,1000.00"/>
        <lane id="4o_2" index="2" speed="25.00" length="483.20" shape="504.80,516.80 504.80,1000.00"/>
        <lane id="4o_3" index="3" speed="25.00" length="483.20" shape="501.60,516.80 501.60,1000.00"/>
    </edge>

    <tlLogic id="0" type="static" programID="0" offset="0">
        <phase duration="29" state="GGGrGrrrGGGrGrrr"/>
        <phase duration="5"  state="yyyryrrryyyryrrr"/>
        <phase duration="6"  state="rrrGrrrrrrrGrrrr"/>
        <phase duration="5"  state="rrryrrrrrrryrrrr"/>
        <phase duration="29" state="GrrrGGGrGrrrGGGr"/>
        <phase duration="5"  state="yrrryyyryrrryyyr"/>
        <phase duration="6"  state="rrrrrrrGrrrrrrrG"/>
        <phase duration="5"  state="rrrrrrryrrrrrrry"/>
    </tlLogic>

    <junction id="0" type="traffic_light" x="500.00" y="500.00" incLanes="4i_0 4i_1 4i_2 4i_3 2i_0 2i_1 2i_2 2i_3 3i_0 3i_1 3i_2 3i_3 1i_0 1i_1 1i_2 1i_3" intLanes=":0_0_0 :0_1_0 :0_1_1 :0_16_0 :0_4_0 :0_5_0 :0_5_1 :0_17_0 :0_8_0 :0_9_0 :0_9_1 :0_18_0 :0_12_0 :0_13_0 :0_13_1 :0_19_0" shape="487.20,516.80 512.80,516.80 513.24,514.58 513.80,513.80 514.58,513.24 515.58,512.91 516.80,512.80 516.80,487.20 514.58,486.76 513.80,486.20 513.24,485.42 512.91,484.42 512.80,483.20 487.20,483.20 486.76,485.42 486.20,486.20 485.42,486.76 484.42,487.09 483.20,487.20 483.20,512.80 485.42,513.24 486.20,513.80 486.76,514.58 487.09,515.58">
        <request index="0"  response="0000000000000000" foes="0000000000000000" cont="0"/>
        <request index="1"  response="1000000000000000" foes="1110100001100000" cont="0"/>
        <request index="2"  response="1000000000000000" foes="1110100001100000" cont="0"/>
        <request index="3"  response="1000011010000000" foes="1000011011100000" cont="1"/>
        <request index="4"  response="0000000000000000" foes="0000000000000000" cont="0"/>
        <request index="5"  response="0000011000001110" foes="1000011000001110" cont="0"/>
        <request index="6"  response="0000011000001110" foes="1000011000001110" cont="0"/>
        <request index="7"  response="0110111000001000" foes="0110111000001000" cont="1"/>
        <request index="8"  response="0000000000000000" foes="0000000000000000" cont="0"/>
        <request index="9"  response="0000000010000000" foes="0110000011101000" cont="0"/>
        <request index="10" response="0000000010000000" foes="0110000011101000" cont="0"/>
        <request index="11" response="1000000010000110" foes="1110000010000110" cont="1"/>
        <request index="12" response="0000000000000000" foes="0000000000000000" cont="0"/>
        <request index="13" response="0000111000000110" foes="0000111010000110" cont="0"/>
        <request index="14" response="0000111000000110" foes="0000111010000110" cont="0"/>
        <request index="15" response="0000100001101110" foes="0000100001101110" cont="1"/>
    </junction>
    <junction id="1" type="priority" x="0.00" y="500.00" incLanes="1o_0 1o_1 1o_2 1o_3" intLanes=":1_0_0" shape="0.00,500.00 0.00,512.80 0.00,500.00">
        <request index="0" response="0" foes="0" cont="0"/>
    </junction>
    <junction id="2" type="priority" x="1000.00" y="500.00" incLanes="2o_0 2o_1 2o_2 2o_3" intLanes=":2_0_0" shape="1000.00,500.00 1000.00,487.20 1000.00,500.00">
        <request index="0" response="0" foes="0" cont="0"/>
    </junction>
    <junction id="3" type="priority" x="500.00" y="0.00" incLanes="3o_0 3o_1 3o_2 3o_3" intLanes=":3_0_0" shape="500.00,0.00 487.20,0.00 500.00,0.00">
        <request index="0" response="0" foes="0" cont="0"/>
    </junction>
    <junction id="4" type="priority" x="500.00" y="1000.00" incLanes="4o_0 4o_1 4o_2 4o_3" intLanes=":4_0_0" shape="500.00,1000.00 512.80,1000.00 500.00,1000.00">
        <request index="0" response="0" foes="0" cont="0"/>
    </junction>

    <junction id=":0_16_0" type="internal" x="503.20" y="502.88" incLanes=":0_3_0 3i_1 3i_2" intLanes=":0_5_0 :0_5_1 :0_7_0 :0_9_0 :0_9_1 :0_15_0"/>
    <junction id=":0_17_0" type="internal" x="502.88" y="496.80" incLanes=":0_7_0 1i_1 1i_2" intLanes=":0_3_0 :0_9_0 :0_9_1 :0_11_0 :0_13_0 :0_13_1"/>
    <junction id=":0_18_0" type="internal" x="496.80" y="497.12" incLanes=":0_11_0 4i_1 4i_2" intLanes=":0_1_0 :0_1_1 :0_7_0 :0_13_0 :0_13_1 :0_15_0"/>
    <junction id=":0_19_0" type="internal" x="497.12" y="503.20" incLanes=":0_15_0 2i_1 2i_2" intLanes=":0_1_0 :0_1_1 :0_3_0 :0_5_0 :0_5_1 :0_11_0"/>

    <connection from="1i" to="3o" fromLane="0" toLane="0" via=":0_12_0" tl="0" linkIndex="12" dir="r" state="O"/>
    <connection from="1i" to="2o" fromLane="1" toLane="1" via=":0_13_0" tl="0" linkIndex="13" dir="s" state="o"/>
    <connection from="1i" to="2o" fromLane="2" toLane="2" via=":0_13_1" tl="0" linkIndex="14" dir="s" state="o"/>
    <connection from="1i" to="4o" fromLane="3" toLane="3" via=":0_15_0" tl="0" linkIndex="15" dir="l" state="o"/>
    <connection from="1o" to="1i" fromLane="3" toLane="3" via=":1_0_0" dir="t" state="M"/>
    <connection from="2i" to="4o" fromLane="0" toLane="0" via=":0_4_0" tl="0" linkIndex="4" dir="r" state="O"/>
    <connection from="2i" to="1o" fromLane="1" toLane="1" via=":0_5_0" tl="0" linkIndex="5" dir="s" state="o"/>
    <connection from="2i" to="1o" fromLane="2" toLane="2" via=":0_5_1" tl="0" linkIndex="6" dir="s" state="o"/>
    <connection from="2i" to="3o" fromLane="3" toLane="3" via=":0_7_0" tl="0" linkIndex="7" dir="l" state="o"/>
    <connection from="2o" to="2i" fromLane="3" toLane="3" via=":2_0_0" dir="t" state="M"/>
    <connection from="3i" to="2o" fromLane="0" toLane="0" via=":0_8_0" tl="0" linkIndex="8" dir="r" state="O"/>
    <connection from="3i" to="4o" fromLane="1" toLane="1" via=":0_9_0" tl="0" linkIndex="9" dir="s" state="O"/>
    <connection from="3i" to="4o" fromLane="2" toLane="2" via=":0_9_1" tl="0" linkIndex="10" dir="s" state="O"/>
    <connection from="3i" to="1o" fromLane="3" toLane="3" via=":0_11_0" tl="0" linkIndex="11" dir="l" state="o"/>
    <connection from="3o" to="3i" fromLane="3" toLane="3" via=":3_0_0" dir="t" state="M"/>
    <connection from="4i" to="1o" fromLane="0" toLane="0" via=":0_0_0" tl="0" linkIndex="0" dir="r" state="O"/>
    <connection from="4i" to="3o" fromLane="1" toLane="1" via=":0_1_0" tl="0" linkIndex="1" dir="s" state="O"/>
    <connection from="4i" to="3o" fromLane="2" toLane="2" via=":0_1_1" tl="0" linkIndex="2" dir="s" state="O"/>
    <connection from="4i" to="2o" fromLane="3" toLane="3" via=":0_3_0" tl="0" linkIndex="3" dir="l" state="o"/>
    <connection from="4o" to="4i" fromLane="3" toLane="3" via=":4_0_0" dir="t" state="M"/>

    <connection from=":0_0" to="1o" fromLane="0" toLane="0" dir="r" state="M"/>
    <connection from=":0_1" to="3o" fromLane="0" toLane="1" dir="s" state="M"/>
    <connection from=":0_1" to="3o" fromLane="1" toLane="2" dir="s" state="M"/>
    <connection from=":0_3" to="2o" fromLane="0" toLane="3" via=":0_16_0" dir="l" state="m"/>
    <connection from=":0_16" to="2o" fromLane="0" toLane="3" dir="l" state="M"/>
    <connection from=":0_4" to="4o" fromLane="0" toLane="0" dir="r" state="M"/>
    <connection from=":0_5" to="1o" fromLane="0" toLane="1" dir="s" state="M"/>
    <connection from=":0_5" to="1o" fromLane="1" toLane="2" dir="s" state="M"/>
    <connection from=":0_7" to="3o" fromLane="0" toLane="3" via=":0_17_0" dir="l" state="m"/>
    <connection from=":0_17" to="3o" fromLane="0" toLane="3" dir="l" state="M"/>
    <connection from=":0_8" to="2o" fromLane="0" toLane="0" dir="r" state="M"/>
    <connection from=":0_9" to="4o" fromLane="0" toLane="1" dir="s" state="M"/>
    <connection from=":0_9" to="4o" fromLane="1" toLane="2" dir="s" state="M"/>
    <connection from=":0_11" to="1o" fromLane="0" toLane="3" via=":0_18_0" dir="l" state="m"/>
    <connection from=":0_18" to="1o" fromLane="0" toLane="3" dir="l" state="M"/>
    <connection from=":0_12" to="3o" fromLane="0" toLane="0" dir="r" state="M"/>
    <connection from=":0_13" to="2o" fromLane="0" toLane="1" dir="s" state="M"/>
    <connection from=":0_13" to="2o" fromLane="1" toLane="2" dir="s" state="M"/>
    <connection from=":0_15" to="4o" fromLane="0" toLane="3" via=":0_19_0" dir="l" state="m"/>
    <connection from=":0_19" to="4o" fromLane="0" toLane="3" dir="l" state="M"/>
    <connection from=":1_0" to="1i" fromLane="0" toLane="3" dir="t" state="M"/>
    <connection from=":2_0" to="2i" fromLane="0" toLane="3" dir="t" state="M"/>
    <connection from=":3_0" to="3i" fromLane="0" toLane="3" dir="t" state="M"/>
    <connection from=":4_0" to="4i" fromLane="0" toLane="3" dir="t" state="M"/>

</net>
