<routes>
    <vType accel="1.0" decel="5.0" id="ACar" length="2.0" maxSpeed="10.0" sigma="1.0" />
    <vType accel="0.8" decel="5.0" id="BCar" length="2.0" maxSpeed="15.0" sigma="1.0" />
    <route id="route_ns" edges="d11 d21 d31 d41 d51 d61 d71"/>
    <route id="route_we" edges="r11 r12 r13 r14 r15 r16 r17"/>
    <flow depart="1" id="flow_n_s1" route="route_ns" type="ACar" begin="0" end="3600" probability="0.1" />
    <flow depart="1" id="flow_w_e1" route="route_we" type="BCar" begin="0" end="3600" probability="0.3" />
</routes>