<?xml version="1.0" encoding="UTF-8"?>
<edges xmlns:xsi="http://www.w3.org/2001/XMLSchema-instance" xsi:noNamespaceSchemaLocation="http://sumo.dlr.de/xsd/edges_file.xsd">
   <edge id="ni" from="cross_n" to="cross_" priority="78" numLanes="4" speed="25" />
   <edge id="no" from="0" to="1" priority="46" numLanes="4" speed="25" />

   <edge id="2i" from="2" to="0" priority="78" numLanes="4" speed="25" />
   <edge id="2o" from="0" to="2" priority="46" numLanes="4" speed="25" />

   <edge id="3i" from="3" to="0" priority="78" numLanes="4" speed="25" />
   <edge id="3o" from="0" to="3" priority="46" numLanes="4" speed="25" />

   <edge id="4i" from="4" to="0" priority="78" numLanes="4" speed="25" />
   <edge id="4o" from="0" to="4" priority="46" numLanes="4" speed="25" />

</edges>
