<?xml version="1.0" encoding="UTF-8"?>

<!-- generated on Tue Dec  3 18:41:32 2019 by Eclipse SUMO netconvert Version 1.0.1
<configuration xmlns:xsi="http://www.w3.org/2001/XMLSchema-instance" xsi:noNamespaceSchemaLocation="http://sumo.dlr.de/xsd/netconvertConfiguration.xsd">

    <input>
        <node-files value="cross.nod.xml"/>
        <edge-files value="cross.edg.xml"/>
    </input>

    <output>
        <output-file value="cross.net.xml"/>
    </output>

</configuration>
-->

<net version="1.0" junctionCornerDetail="5" limitTurnSpeed="5.50" xmlns:xsi="http://www.w3.org/2001/XMLSchema-instance" xsi:noNamespaceSchemaLocation="http://sumo.dlr.de/xsd/net_file.xsd">

    <location netOffset="500.00,500.00" convBoundary="0.00,0.00,1000.00,1000.00" origBoundary="-500.00,-500.00,500.00,500.00" projParameter="!"/>

    <edge id=":0_0" function="internal">
        <lane id=":0_0_0" index="0" speed="6.51" length="9.03" shape="488.80,516.80 488.45,514.35 487.40,512.60 485.65,511.55 483.20,511.20"/>
    </edge>
    <edge id=":0_1" function="internal">
        <lane id=":0_1_0" index="0" speed="16.00" length="33.60" shape="488.80,516.80 488.80,483.20"/>
        <lane id=":0_1_1" index="1" speed="16.00" length="33.60" shape="492.00,516.80 492.00,483.20"/>
        <lane id=":0_1_2" index="2" speed="16.00" length="33.60" shape="495.20,516.80 495.20,483.20"/>
        <lane id=":0_1_3" index="3" speed="16.00" length="33.60" shape="498.40,516.80 498.40,483.20"/>
    </edge>
    <edge id=":0_5" function="internal">
        <lane id=":0_5_0" index="0" speed="11.36" length="9.01" shape="498.40,516.80 499.55,508.75 500.00,508.00"/>
    </edge>
    <edge id=":0_6" function="internal">
        <lane id=":0_6_0" index="0" speed="3.65" length="2.34" shape="498.40,516.80 499.20,515.60 500.00,515.20"/>
    </edge>
    <edge id=":0_28" function="internal">
        <lane id=":0_28_0" index="0" speed="11.36" length="20.67" shape="500.00,508.00 503.00,503.00 508.75,499.55 516.80,498.40"/>
    </edge>
    <edge id=":0_29" function="internal">
        <lane id=":0_29_0" index="0" speed="3.65" length="2.34" shape="500.00,515.20 500.80,515.60 501.60,516.80"/>
    </edge>
    <edge id=":0_7" function="internal">
        <lane id=":0_7_0" index="0" speed="6.51" length="9.03" shape="516.80,511.20 514.35,511.55 512.60,512.60 511.55,514.35 511.20,516.80"/>
    </edge>
    <edge id=":0_8" function="internal">
        <lane id=":0_8_0" index="0" speed="16.00" length="33.60" shape="516.80,511.20 483.20,511.20"/>
        <lane id=":0_8_1" index="1" speed="16.00" length="33.60" shape="516.80,508.00 483.20,508.00"/>
        <lane id=":0_8_2" index="2" speed="16.00" length="33.60" shape="516.80,504.80 483.20,504.80"/>
        <lane id=":0_8_3" index="3" speed="16.00" length="33.60" shape="516.80,501.60 483.20,501.60"/>
    </edge>
    <edge id=":0_12" function="internal">
        <lane id=":0_12_0" index="0" speed="11.36" length="9.01" shape="516.80,501.60 508.75,500.45 508.00,500.00"/>
    </edge>
    <edge id=":0_13" function="internal">
        <lane id=":0_13_0" index="0" speed="3.65" length="2.34" shape="516.80,501.60 515.60,500.80 515.20,500.00"/>
    </edge>
    <edge id=":0_30" function="internal">
        <lane id=":0_30_0" index="0" speed="11.36" length="20.67" shape="508.00,500.00 503.00,497.00 499.55,491.25 498.40,483.20"/>
    </edge>
    <edge id=":0_31" function="internal">
        <lane id=":0_31_0" index="0" speed="3.65" length="2.34" shape="515.20,500.00 515.60,499.20 516.80,498.40"/>
    </edge>
    <edge id=":0_14" function="internal">
        <lane id=":0_14_0" index="0" speed="6.51" length="9.03" shape="511.20,483.20 511.55,485.65 512.60,487.40 514.35,488.45 516.80,488.80"/>
    </edge>
    <edge id=":0_15" function="internal">
        <lane id=":0_15_0" index="0" speed="16.00" length="33.60" shape="511.20,483.20 511.20,516.80"/>
        <lane id=":0_15_1" index="1" speed="16.00" length="33.60" shape="508.00,483.20 508.00,516.80"/>
        <lane id=":0_15_2" index="2" speed="16.00" length="33.60" shape="504.80,483.20 504.80,516.80"/>
        <lane id=":0_15_3" index="3" speed="16.00" length="33.60" shape="501.60,483.20 501.60,516.80"/>
    </edge>
    <edge id=":0_19" function="internal">
        <lane id=":0_19_0" index="0" speed="11.36" length="9.01" shape="501.60,483.20 500.45,491.25 500.00,492.00"/>
    </edge>
    <edge id=":0_20" function="internal">
        <lane id=":0_20_0" index="0" speed="3.65" length="2.34" shape="501.60,483.20 500.80,484.40 500.00,484.80"/>
    </edge>
    <edge id=":0_32" function="internal">
        <lane id=":0_32_0" index="0" speed="11.36" length="20.67" shape="500.00,492.00 497.00,497.00 491.25,500.45 483.20,501.60"/>
    </edge>
    <edge id=":0_33" function="internal">
        <lane id=":0_33_0" index="0" speed="3.65" length="2.34" shape="500.00,484.80 499.20,484.40 498.40,483.20"/>
    </edge>
    <edge id=":0_21" function="internal">
        <lane id=":0_21_0" index="0" speed="6.51" length="9.03" shape="483.20,488.80 485.65,488.45 487.40,487.40 488.45,485.65 488.80,483.20"/>
    </edge>
    <edge id=":0_22" function="internal">
        <lane id=":0_22_0" index="0" speed="16.00" length="33.60" shape="483.20,488.80 516.80,488.80"/>
        <lane id=":0_22_1" index="1" speed="16.00" length="33.60" shape="483.20,492.00 516.80,492.00"/>
        <lane id=":0_22_2" index="2" speed="16.00" length="33.60" shape="483.20,495.20 516.80,495.20"/>
        <lane id=":0_22_3" index="3" speed="16.00" length="33.60" shape="483.20,498.40 516.80,498.40"/>
    </edge>
    <edge id=":0_26" function="internal">
        <lane id=":0_26_0" index="0" speed="11.36" length="9.01" shape="483.20,498.40 491.25,499.55 492.00,500.00"/>
    </edge>
    <edge id=":0_27" function="internal">
        <lane id=":0_27_0" index="0" speed="3.65" length="2.34" shape="483.20,498.40 484.40,499.20 484.80,500.00"/>
    </edge>
    <edge id=":0_34" function="internal">
        <lane id=":0_34_0" index="0" speed="11.36" length="20.67" shape="492.00,500.00 497.00,503.00 500.45,508.75 501.60,516.80"/>
    </edge>
    <edge id=":0_35" function="internal">
        <lane id=":0_35_0" index="0" speed="3.65" length="2.34" shape="484.80,500.00 484.40,500.80 483.20,501.60"/>
    </edge>
    <edge id=":1_0" function="internal">
        <lane id=":1_0_0" index="0" speed="3.65" length="4.67" shape="0.00,501.60 -1.20,500.80 -1.60,500.00 -1.20,499.20 0.00,498.40"/>
    </edge>
    <edge id=":2_0" function="internal">
        <lane id=":2_0_0" index="0" speed="3.65" length="4.67" shape="1000.00,498.40 1001.20,499.20 1001.60,500.00 1001.20,500.80 1000.00,501.60"/>
    </edge>
    <edge id=":3_0" function="internal">
        <lane id=":3_0_0" index="0" speed="3.65" length="4.67" shape="498.40,0.00 499.20,-1.20 500.00,-1.60 500.80,-1.20 501.60,0.00"/>
    </edge>
    <edge id=":4_0" function="internal">
        <lane id=":4_0_0" index="0" speed="3.65" length="4.67" shape="501.60,1000.00 500.80,1001.20 500.00,1001.60 499.20,1001.20 498.40,1000.00"/>
    </edge>

    <edge id="1i" from="1" to="0" priority="78">
        <lane id="1i_0" index="0" speed="16.00" length="483.20" shape="0.00,488.80 483.20,488.80"/>
        <lane id="1i_1" index="1" speed="16.00" length="483.20" shape="0.00,492.00 483.20,492.00"/>
        <lane id="1i_2" index="2" speed="16.00" length="483.20" shape="0.00,495.20 483.20,495.20"/>
        <lane id="1i_3" index="3" speed="16.00" length="483.20" shape="0.00,498.40 483.20,498.40"/>
    </edge>
    <edge id="1o" from="0" to="1" priority="78">
        <lane id="1o_0" index="0" speed="16.00" length="483.20" shape="483.20,511.20 0.00,511.20"/>
        <lane id="1o_1" index="1" speed="16.00" length="483.20" shape="483.20,508.00 0.00,508.00"/>
        <lane id="1o_2" index="2" speed="16.00" length="483.20" shape="483.20,504.80 0.00,504.80"/>
        <lane id="1o_3" index="3" speed="16.00" length="483.20" shape="483.20,501.60 0.00,501.60"/>
    </edge>
    <edge id="2i" from="2" to="0" priority="78">
        <lane id="2i_0" index="0" speed="16.00" length="483.20" shape="1000.00,511.20 516.80,511.20"/>
        <lane id="2i_1" index="1" speed="16.00" length="483.20" shape="1000.00,508.00 516.80,508.00"/>
        <lane id="2i_2" index="2" speed="16.00" length="483.20" shape="1000.00,504.80 516.80,504.80"/>
        <lane id="2i_3" index="3" speed="16.00" length="483.20" shape="1000.00,501.60 516.80,501.60"/>
    </edge>
    <edge id="2o" from="0" to="2" priority="78">
        <lane id="2o_0" index="0" speed="16.00" length="483.20" shape="516.80,488.80 1000.00,488.80"/>
        <lane id="2o_1" index="1" speed="16.00" length="483.20" shape="516.80,492.00 1000.00,492.00"/>
        <lane id="2o_2" index="2" speed="16.00" length="483.20" shape="516.80,495.20 1000.00,495.20"/>
        <lane id="2o_3" index="3" speed="16.00" length="483.20" shape="516.80,498.40 1000.00,498.40"/>
    </edge>
    <edge id="3i" from="3" to="0" priority="78">
        <lane id="3i_0" index="0" speed="16.00" length="483.20" shape="511.20,0.00 511.20,483.20"/>
        <lane id="3i_1" index="1" speed="16.00" length="483.20" shape="508.00,0.00 508.00,483.20"/>
        <lane id="3i_2" index="2" speed="16.00" length="483.20" shape="504.80,0.00 504.80,483.20"/>
        <lane id="3i_3" index="3" speed="16.00" length="483.20" shape="501.60,0.00 501.60,483.20"/>
    </edge>
    <edge id="3o" from="0" to="3" priority="78">
        <lane id="3o_0" index="0" speed="16.00" length="483.20" shape="488.80,483.20 488.80,0.00"/>
        <lane id="3o_1" index="1" speed="16.00" length="483.20" shape="492.00,483.20 492.00,0.00"/>
        <lane id="3o_2" index="2" speed="16.00" length="483.20" shape="495.20,483.20 495.20,0.00"/>
        <lane id="3o_3" index="3" speed="16.00" length="483.20" shape="498.40,483.20 498.40,0.00"/>
    </edge>
    <edge id="4i" from="4" to="0" priority="78">
        <lane id="4i_0" index="0" speed="16.00" length="483.20" shape="488.80,1000.00 488.80,516.80"/>
        <lane id="4i_1" index="1" speed="16.00" length="483.20" shape="492.00,1000.00 492.00,516.80"/>
        <lane id="4i_2" index="2" speed="16.00" length="483.20" shape="495.20,1000.00 495.20,516.80"/>
        <lane id="4i_3" index="3" speed="16.00" length="483.20" shape="498.40,1000.00 498.40,516.80"/>
    </edge>
    <edge id="4o" from="0" to="4" priority="78">
        <lane id="4o_0" index="0" speed="16.00" length="483.20" shape="511.20,516.80 511.20,1000.00"/>
        <lane id="4o_1" index="1" speed="16.00" length="483.20" shape="508.00,516.80 508.00,1000.00"/>
        <lane id="4o_2" index="2" speed="16.00" length="483.20" shape="504.80,516.80 504.80,1000.00"/>
        <lane id="4o_3" index="3" speed="16.00" length="483.20" shape="501.60,516.80 501.60,1000.00"/>
    </edge>

    <tlLogic id="0" type="static" programID="0" offset="0">
        <phase duration="200" state="GGGrGrrrGGGrGrrr"/>
        <phase duration="5"  state="yyyryrrryyyryrrr"/>
        <phase duration="200"  state="rrrGrrrrrrrGrrrr"/>
        <phase duration="5"  state="rrryrrrrrrryrrrr"/>
        <phase duration="200" state="GrrrGGGrGrrrGGGr"/>
        <phase duration="5"  state="yrrryyyryrrryyyr"/>
        <phase duration="200"  state="rrrrrrrGrrrrrrrG"/>
        <phase duration="5"  state="rrrrrrryrrrrrrry"/>
    </tlLogic>

    <junction id="0" type="traffic_light" x="500.00" y="500.00" incLanes="4i_0 4i_1 4i_2 4i_3 2i_0 2i_1 2i_2 2i_3 3i_0 3i_1 3i_2 3i_3 1i_0 1i_1 1i_2 1i_3" intLanes=":0_0_0 :0_1_0 :0_1_1 :0_1_2 :0_1_3 :0_28_0 :0_29_0 :0_7_0 :0_8_0 :0_8_1 :0_8_2 :0_8_3 :0_30_0 :0_31_0 :0_14_0 :0_15_0 :0_15_1 :0_15_2 :0_15_3 :0_32_0 :0_33_0 :0_21_0 :0_22_0 :0_22_1 :0_22_2 :0_22_3 :0_34_0 :0_35_0" shape="487.20,516.80 512.80,516.80 513.24,514.58 513.80,513.80 514.58,513.24 515.58,512.91 516.80,512.80 516.80,487.20 514.58,486.76 513.80,486.20 513.24,485.42 512.91,484.42 512.80,483.20 487.20,483.20 486.76,485.42 486.20,486.20 485.42,486.76 484.42,487.09 483.20,487.20 483.20,512.80 485.42,513.24 486.20,513.80 486.76,514.58 487.09,515.58">
        <request index="0"  response="0000000000000000000000000000" foes="1000000010000000111100000000" cont="0"/>
        <request index="1"  response="0100000000000001000000000000" foes="0111111110000001111100000000" cont="0"/>
        <request index="2"  response="0100000000000001000000000000" foes="0111111110000001111100000000" cont="0"/>
        <request index="3"  response="0100000000000001000000000000" foes="0111111110000001111100000000" cont="0"/>
        <request index="4"  response="0100000000000001000000000000" foes="0111111110000001111100000000" cont="0"/>
        <request index="5"  response="0100000001111101000000000000" foes="0111110001111111111100000000" cont="1"/>
        <request index="6"  response="0100000001111000000010000000" foes="0100000001111000000010000000" cont="1"/>
        <request index="7"  response="0000000001111000000000000000" foes="0100000001111000000001000000" cont="0"/>
        <request index="8"  response="0000000011111000000000111111" foes="1100000011111000000000111111" cont="0"/>
        <request index="9"  response="0000000011111000000000111111" foes="1100000011111000000000111111" cont="0"/>
        <request index="10" response="0000000011111000000000111111" foes="1100000011111000000000111111" cont="0"/>
        <request index="11" response="0000000011111000000000111111" foes="1100000011111000000000111111" cont="0"/>
        <request index="12" response="0011111011111000000000111110" foes="0011111111111000000000111110" cont="1"/>
        <request index="13" response="0011110000000100000000100000" foes="0011110000000100000000100000" cont="1"/>
        <request index="14" response="0000000000000000000000000000" foes="0011110000000010000000100000" cont="0"/>
        <request index="15" response="0100000000000001000000000000" foes="0111110000000001111111100000" cont="0"/>
        <request index="16" response="0100000000000001000000000000" foes="0111110000000001111111100000" cont="0"/>
        <request index="17" response="0100000000000001000000000000" foes="0111110000000001111111100000" cont="0"/>
        <request index="18" response="0100000000000001000000000000" foes="0111110000000001111111100000" cont="0"/>
        <request index="19" response="0100000000000001000000011111" foes="1111110000000001111100011111" cont="1"/>
        <request index="20" response="0000001000000001000000011110" foes="0000001000000001000000011110" cont="1"/>
        <request index="21" response="0000000000000000000000011110" foes="0000000100000001000000011110" cont="0"/>
        <request index="22" response="0000000011111100000000111110" foes="0000000011111111000000111110" cont="0"/>
        <request index="23" response="0000000011111100000000111110" foes="0000000011111111000000111110" cont="0"/>
        <request index="24" response="0000000011111100000000111110" foes="0000000011111111000000111110" cont="0"/>
        <request index="25" response="0000000011111100000000111110" foes="0000000011111111000000111110" cont="0"/>
        <request index="26" response="0000000011111000111110111110" foes="0000000011111000111111111110" cont="1"/>
        <request index="27" response="0000000010000000111100000001" foes="0000000010000000111100000001" cont="1"/>
    </junction>
    <junction id="1" type="priority" x="0.00" y="500.00" incLanes="1o_0 1o_1 1o_2 1o_3" intLanes=":1_0_0" shape="0.00,500.00 0.00,512.80 0.00,500.00">
        <request index="0" response="0" foes="0" cont="0"/>
    </junction>
    <junction id="2" type="priority" x="1000.00" y="500.00" incLanes="2o_0 2o_1 2o_2 2o_3" intLanes=":2_0_0" shape="1000.00,500.00 1000.00,487.20 1000.00,500.00">
        <request index="0" response="0" foes="0" cont="0"/>
    </junction>
    <junction id="3" type="priority" x="500.00" y="0.00" incLanes="3o_0 3o_1 3o_2 3o_3" intLanes=":3_0_0" shape="500.00,0.00 487.20,0.00 500.00,0.00">
        <request index="0" response="0" foes="0" cont="0"/>
    </junction>
    <junction id="4" type="priority" x="500.00" y="1000.00" incLanes="4o_0 4o_1 4o_2 4o_3" intLanes=":4_0_0" shape="500.00,1000.00 512.80,1000.00 500.00,1000.00">
        <request index="0" response="0" foes="0" cont="0"/>
    </junction>

    <junction id=":0_28_0" type="internal" x="500.00" y="508.00" incLanes=":0_5_0 3i_0 3i_1 3i_2 3i_3" intLanes=":0_8_0 :0_8_1 :0_8_2 :0_8_3 :0_12_0 :0_13_0 :0_14_0 :0_15_0 :0_15_1 :0_15_2 :0_15_3 :0_22_0 :0_22_1 :0_22_2 :0_22_3 :0_26_0"/>
    <junction id=":0_29_0" type="internal" x="500.00" y="515.20" incLanes=":0_6_0 1i_3 2i_0 3i_0 3i_1 3i_2 3i_3" intLanes=":0_7_0 :0_15_0 :0_15_1 :0_15_2 :0_15_3 :0_26_0"/>
    <junction id=":0_30_0" type="internal" x="508.00" y="500.00" incLanes=":0_12_0 1i_0 1i_1 1i_2 1i_3" intLanes=":0_1_0 :0_1_1 :0_1_2 :0_1_3 :0_5_0 :0_15_0 :0_15_1 :0_15_2 :0_15_3 :0_19_0 :0_20_0 :0_21_0 :0_22_0 :0_22_1 :0_22_2 :0_22_3"/>
    <junction id=":0_31_0" type="internal" x="515.20" y="500.00" incLanes=":0_13_0 1i_0 1i_1 1i_2 1i_3 3i_0 4i_3" intLanes=":0_5_0 :0_14_0 :0_22_0 :0_22_1 :0_22_2 :0_22_3"/>
    <junction id=":0_32_0" type="internal" x="500.00" y="492.00" incLanes=":0_19_0 4i_0 4i_1 4i_2 4i_3" intLanes=":0_0_0 :0_1_0 :0_1_1 :0_1_2 :0_1_3 :0_8_0 :0_8_1 :0_8_2 :0_8_3 :0_12_0 :0_22_0 :0_22_1 :0_22_2 :0_22_3 :0_26_0 :0_27_0"/>
    <junction id=":0_33_0" type="internal" x="500.00" y="484.80" incLanes=":0_20_0 1i_0 2i_3 4i_0 4i_1 4i_2 4i_3" intLanes=":0_1_0 :0_1_1 :0_1_2 :0_1_3 :0_12_0 :0_21_0"/>
    <junction id=":0_34_0" type="internal" x="492.00" y="500.00" incLanes=":0_26_0 2i_0 2i_1 2i_2 2i_3" intLanes=":0_1_0 :0_1_1 :0_1_2 :0_1_3 :0_5_0 :0_6_0 :0_7_0 :0_8_0 :0_8_1 :0_8_2 :0_8_3 :0_15_0 :0_15_1 :0_15_2 :0_15_3 :0_19_0"/>
    <junction id=":0_35_0" type="internal" x="484.80" y="500.00" incLanes=":0_27_0 2i_0 2i_1 2i_2 2i_3 3i_3 4i_0" intLanes=":0_0_0 :0_8_0 :0_8_1 :0_8_2 :0_8_3 :0_19_0"/>

    <connection from="1i" to="3o" fromLane="0" toLane="0" via=":0_21_0" tl="0" linkIndex="21" dir="r" state="o"/>
    <connection from="1i" to="2o" fromLane="0" toLane="0" via=":0_22_0" tl="0" linkIndex="22" dir="s" state="o"/>
    <connection from="1i" to="2o" fromLane="1" toLane="1" via=":0_22_1" tl="0" linkIndex="23" dir="s" state="o"/>
    <connection from="1i" to="2o" fromLane="2" toLane="2" via=":0_22_2" tl="0" linkIndex="24" dir="s" state="o"/>
    <connection from="1i" to="2o" fromLane="3" toLane="3" via=":0_22_3" tl="0" linkIndex="25" dir="s" state="o"/>
    <connection from="1i" to="4o" fromLane="3" toLane="3" via=":0_26_0" tl="0" linkIndex="26" dir="l" state="o"/>
    <connection from="1i" to="1o" fromLane="3" toLane="3" via=":0_27_0" tl="0" linkIndex="27" dir="t" state="o"/>
    <connection from="1o" to="1i" fromLane="3" toLane="3" via=":1_0_0" dir="t" state="M"/>
    <connection from="2i" to="4o" fromLane="0" toLane="0" via=":0_7_0" tl="0" linkIndex="7" dir="r" state="o"/>
    <connection from="2i" to="1o" fromLane="0" toLane="0" via=":0_8_0" tl="0" linkIndex="8" dir="s" state="o"/>
    <connection from="2i" to="1o" fromLane="1" toLane="1" via=":0_8_1" tl="0" linkIndex="9" dir="s" state="o"/>
    <connection from="2i" to="1o" fromLane="2" toLane="2" via=":0_8_2" tl="0" linkIndex="10" dir="s" state="o"/>
    <connection from="2i" to="1o" fromLane="3" toLane="3" via=":0_8_3" tl="0" linkIndex="11" dir="s" state="o"/>
    <connection from="2i" to="3o" fromLane="3" toLane="3" via=":0_12_0" tl="0" linkIndex="12" dir="l" state="o"/>
    <connection from="2i" to="2o" fromLane="3" toLane="3" via=":0_13_0" tl="0" linkIndex="13" dir="t" state="o"/>
    <connection from="2o" to="2i" fromLane="3" toLane="3" via=":2_0_0" dir="t" state="M"/>
    <connection from="3i" to="2o" fromLane="0" toLane="0" via=":0_14_0" tl="0" linkIndex="14" dir="r" state="O"/>
    <connection from="3i" to="4o" fromLane="0" toLane="0" via=":0_15_0" tl="0" linkIndex="15" dir="s" state="O"/>
    <connection from="3i" to="4o" fromLane="1" toLane="1" via=":0_15_1" tl="0" linkIndex="16" dir="s" state="O"/>
    <connection from="3i" to="4o" fromLane="2" toLane="2" via=":0_15_2" tl="0" linkIndex="17" dir="s" state="O"/>
    <connection from="3i" to="4o" fromLane="3" toLane="3" via=":0_15_3" tl="0" linkIndex="18" dir="s" state="O"/>
    <connection from="3i" to="1o" fromLane="3" toLane="3" via=":0_19_0" tl="0" linkIndex="19" dir="l" state="o"/>
    <connection from="3i" to="3o" fromLane="3" toLane="3" via=":0_20_0" tl="0" linkIndex="20" dir="t" state="o"/>
    <connection from="3o" to="3i" fromLane="3" toLane="3" via=":3_0_0" dir="t" state="M"/>
    <connection from="4i" to="1o" fromLane="0" toLane="0" via=":0_0_0" tl="0" linkIndex="0" dir="r" state="O"/>
    <connection from="4i" to="3o" fromLane="0" toLane="0" via=":0_1_0" tl="0" linkIndex="1" dir="s" state="O"/>
    <connection from="4i" to="3o" fromLane="1" toLane="1" via=":0_1_1" tl="0" linkIndex="2" dir="s" state="O"/>
    <connection from="4i" to="3o" fromLane="2" toLane="2" via=":0_1_2" tl="0" linkIndex="3" dir="s" state="O"/>
    <connection from="4i" to="3o" fromLane="3" toLane="3" via=":0_1_3" tl="0" linkIndex="4" dir="s" state="O"/>
    <connection from="4i" to="2o" fromLane="3" toLane="3" via=":0_5_0" tl="0" linkIndex="5" dir="l" state="o"/>
    <connection from="4i" to="4o" fromLane="3" toLane="3" via=":0_6_0" tl="0" linkIndex="6" dir="t" state="o"/>
    <connection from="4o" to="4i" fromLane="3" toLane="3" via=":4_0_0" dir="t" state="M"/>

    <connection from=":0_0" to="1o" fromLane="0" toLane="0" dir="r" state="M"/>
    <connection from=":0_1" to="3o" fromLane="0" toLane="0" dir="s" state="M"/>
    <connection from=":0_1" to="3o" fromLane="1" toLane="1" dir="s" state="M"/>
    <connection from=":0_1" to="3o" fromLane="2" toLane="2" dir="s" state="M"/>
    <connection from=":0_1" to="3o" fromLane="3" toLane="3" dir="s" state="M"/>
    <connection from=":0_5" to="2o" fromLane="0" toLane="3" via=":0_28_0" dir="l" state="m"/>
    <connection from=":0_28" to="2o" fromLane="0" toLane="3" dir="l" state="M"/>
    <connection from=":0_6" to="4o" fromLane="0" toLane="3" via=":0_29_0" dir="t" state="m"/>
    <connection from=":0_29" to="4o" fromLane="0" toLane="3" dir="t" state="M"/>
    <connection from=":0_7" to="4o" fromLane="0" toLane="0" dir="r" state="M"/>
    <connection from=":0_8" to="1o" fromLane="0" toLane="0" dir="s" state="M"/>
    <connection from=":0_8" to="1o" fromLane="1" toLane="1" dir="s" state="M"/>
    <connection from=":0_8" to="1o" fromLane="2" toLane="2" dir="s" state="M"/>
    <connection from=":0_8" to="1o" fromLane="3" toLane="3" dir="s" state="M"/>
    <connection from=":0_12" to="3o" fromLane="0" toLane="3" via=":0_30_0" dir="l" state="m"/>
    <connection from=":0_30" to="3o" fromLane="0" toLane="3" dir="l" state="M"/>
    <connection from=":0_13" to="2o" fromLane="0" toLane="3" via=":0_31_0" dir="t" state="m"/>
    <connection from=":0_31" to="2o" fromLane="0" toLane="3" dir="t" state="M"/>
    <connection from=":0_14" to="2o" fromLane="0" toLane="0" dir="r" state="M"/>
    <connection from=":0_15" to="4o" fromLane="0" toLane="0" dir="s" state="M"/>
    <connection from=":0_15" to="4o" fromLane="1" toLane="1" dir="s" state="M"/>
    <connection from=":0_15" to="4o" fromLane="2" toLane="2" dir="s" state="M"/>
    <connection from=":0_15" to="4o" fromLane="3" toLane="3" dir="s" state="M"/>
    <connection from=":0_19" to="1o" fromLane="0" toLane="3" via=":0_32_0" dir="l" state="m"/>
    <connection from=":0_32" to="1o" fromLane="0" toLane="3" dir="l" state="M"/>
    <connection from=":0_20" to="3o" fromLane="0" toLane="3" via=":0_33_0" dir="t" state="m"/>
    <connection from=":0_33" to="3o" fromLane="0" toLane="3" dir="t" state="M"/>
    <connection from=":0_21" to="3o" fromLane="0" toLane="0" dir="r" state="M"/>
    <connection from=":0_22" to="2o" fromLane="0" toLane="0" dir="s" state="M"/>
    <connection from=":0_22" to="2o" fromLane="1" toLane="1" dir="s" state="M"/>
    <connection from=":0_22" to="2o" fromLane="2" toLane="2" dir="s" state="M"/>
    <connection from=":0_22" to="2o" fromLane="3" toLane="3" dir="s" state="M"/>
    <connection from=":0_26" to="4o" fromLane="0" toLane="3" via=":0_34_0" dir="l" state="m"/>
    <connection from=":0_34" to="4o" fromLane="0" toLane="3" dir="l" state="M"/>
    <connection from=":0_27" to="1o" fromLane="0" toLane="3" via=":0_35_0" dir="t" state="m"/>
    <connection from=":0_35" to="1o" fromLane="0" toLane="3" dir="t" state="M"/>
    <connection from=":1_0" to="1i" fromLane="0" toLane="3" dir="t" state="M"/>
    <connection from=":2_0" to="2i" fromLane="0" toLane="3" dir="t" state="M"/>
    <connection from=":3_0" to="3i" fromLane="0" toLane="3" dir="t" state="M"/>
    <connection from=":4_0" to="4i" fromLane="0" toLane="3" dir="t" state="M"/>

</net>
